data_image0
_chemical_formula_structural       H60C114N12O12C2Sn2C2HTe2HMgC2Sn2C2HTe2HMgC2Sn2C2HTe2HMgC2Sn2C2HTe2HMgC2Sn2C2HTe2HMgC2Sn2C2HTe2HMg
_chemical_formula_sum              "H72 C138 N12 O12 Sn12 Te12 Mg6"
_cell_length_a       37.9444
_cell_length_b       37.8128
_cell_length_c       7.94919
_cell_angle_alpha    70.408
_cell_angle_beta     108.635
_cell_angle_gamma    121.917

_symmetry_space_group_name_H-M    'P1'
_space_group_IT_number       1

loop_
  _space_group_symop_operation_xyz
  'x, y, z'

loop_
  _atom_site_type_symbol
  _atom_site_label
  _atom_site_symmetry_multiplicity
  _atom_site_fract_x
  _atom_site_fract_y
  _atom_site_fract_z
  _atom_site_occupancy
  H   H1        1.0  0.29311  0.58216  0.14221  1.0000
  H   H2        1.0  0.41544  0.69221  0.18097  1.0000
  H   H3        1.0  0.30418  0.70113  0.13593  1.0000
  H   H4        1.0  0.44587  0.75876  0.11367  1.0000
  H   H5        1.0  0.24025  0.67055  0.91997  1.0000
  H   H6        1.0  0.48903  0.83171  0.17014  1.0000
  H   H7        1.0  0.16706  0.64537  0.95108  1.0000
  H   H8        1.0  0.38222  0.82265  0.29874  1.0000
  H   H9        1.0  0.17229  0.54194  0.38333  1.0000
  H   H10       1.0  0.34029  0.74871  0.25868  1.0000
  H   H11       1.0  0.24532  0.56679  0.34898  1.0000
  H   H12       1.0  0.41071  0.44656  0.06439  1.0000
  H   H13       1.0  0.55355  0.96442  0.17269  1.0000
  H   H14       1.0  0.03412  0.58727  0.94954  1.0000
  H   H15       1.0  0.44561  0.40683  0.07737  1.0000
  H   H16       1.0  0.59480  0.03787  0.21227  1.0000
  H   H17       1.0  0.96049  0.55648  0.97348  1.0000
  H   H18       1.0  0.69621  0.40520  0.22250  1.0000
  H   H19       1.0  0.59713  0.27624  0.24865  1.0000
  H   H20       1.0  0.72416  0.30456  0.28387  1.0000
  H   H21       1.0  0.77865  0.35358  0.16906  1.0000
  H   H22       1.0  0.85441  0.40626  0.18986  1.0000
  H   H23       1.0  0.83066  0.49131  0.32777  1.0000
  H   H24       1.0  0.75561  0.43885  0.31356  1.0000
  H   H25       1.0  0.58076  0.55001  0.08817  1.0000
  H   H26       1.0  0.43797  0.00620  0.99735  1.0000
  H   H27       1.0  0.00201  0.43939  0.16015  1.0000
  H   H28       1.0  0.60106  0.56829  0.39363  1.0000
  H   H29       1.0  0.41626  0.99703  0.23384  1.0000
  H   H30       1.0  0.00443  0.41682  0.46272  1.0000
  H   H31       1.0  0.28709  0.59811  0.63654  1.0000
  H   H32       1.0  0.40335  0.71395  0.68601  1.0000
  H   H33       1.0  0.28531  0.71052  0.63636  1.0000
  H   H34       1.0  0.42765  0.77809  0.60805  1.0000
  H   H35       1.0  0.46895  0.84978  0.67665  1.0000
  H   H36       1.0  0.36233  0.83143  0.84566  1.0000
  H   H37       1.0  0.32114  0.75942  0.77944  1.0000
  H   H38       1.0  0.40636  0.47244  0.61106  1.0000
  H   H39       1.0  0.54272  0.96778  0.72392  1.0000
  H   H40       1.0  0.02249  0.58077  0.48832  1.0000
  H   H41       1.0  0.43440  0.42763  0.60863  1.0000
  H   H42       1.0  0.58946  0.04251  0.73896  1.0000
  H   H43       1.0  0.94949  0.55366  0.50966  1.0000
  H   H44       1.0  0.68235  0.41848  0.73763  1.0000
  H   H45       1.0  0.58270  0.28967  0.75393  1.0000
  H   H46       1.0  0.70752  0.32015  0.73758  1.0000
  H   H47       1.0  0.63180  0.43409  0.61061  1.0000
  H   H48       1.0  0.56952  0.23745  0.59493  1.0000
  H   H49       1.0  0.58482  0.45677  0.64795  1.0000
  H   H50       1.0  0.54891  0.16054  0.65669  1.0000
  H   H51       1.0  0.51139  0.33024  0.93195  1.0000
  H   H52       1.0  0.66735  0.18338  0.01531  1.0000
  H   H53       1.0  0.55855  0.30739  0.89829  1.0000
  H   H54       1.0  0.68900  0.26033  0.94738  1.0000
  H   H55       1.0  0.57779  0.53013  0.58995  1.0000
  H   H56       1.0  0.42485  0.97922  0.47942  1.0000
  H   H57       1.0  0.02020  0.43817  0.66567  1.0000
  H   H58       1.0  0.60432  0.58573  0.88849  1.0000
  H   H59       1.0  0.41204  0.02321  0.77240  1.0000
  H   H60       1.0  0.98411  0.39861  0.03347  1.0000
  C   C1        1.0  0.29382  0.63999  0.13472  1.0000
  C   C2        1.0  0.35656  0.63484  0.15518  1.0000
  C   C3        1.0  0.36341  0.70282  0.15938  1.0000
  C   C4        1.0  0.31262  0.61600  0.14199  1.0000
  C   C5        1.0  0.38139  0.67800  0.16533  1.0000
  C   C6        1.0  0.31937  0.68324  0.13963  1.0000
  C   C7        1.0  0.24851  0.62121  0.13586  1.0000
  C   C8        1.0  0.38929  0.74745  0.18139  1.0000
  C   C9        1.0  0.43169  0.77207  0.15701  1.0000
  C   C10       1.0  0.22561  0.64270  0.02315  1.0000
  C   C11       1.0  0.45622  0.81338  0.18707  1.0000
  C   C12       1.0  0.18461  0.62869  0.03911  1.0000
  C   C13       1.0  0.43847  0.83215  0.23676  1.0000
  C   C14       1.0  0.16546  0.59245  0.17071  1.0000
  C   C15       1.0  0.39590  0.80859  0.25733  1.0000
  C   C16       1.0  0.18720  0.56958  0.28014  1.0000
  C   C17       1.0  0.37233  0.76693  0.23180  1.0000
  C   C18       1.0  0.22811  0.58384  0.26029  1.0000
  C   C19       1.0  0.44427  0.51317  0.22664  1.0000
  C   C20       1.0  0.47608  0.90857  0.25115  1.0000
  C   C21       1.0  0.08994  0.56066  0.17774  1.0000
  C   C22       1.0  0.46408  0.49304  0.21902  1.0000
  C   C23       1.0  0.49676  0.95043  0.25357  1.0000
  C   C24       1.0  0.04837  0.54205  0.17859  1.0000
  C   C25       1.0  0.44317  0.45636  0.13418  1.0000
  C   C26       1.0  0.53976  0.97790  0.21714  1.0000
  C   C27       1.0  0.02079  0.55939  0.05459  1.0000
  C   C28       1.0  0.46260  0.43410  0.14169  1.0000
  C   C29       1.0  0.56265  0.01901  0.23795  1.0000
  C   C30       1.0  0.97963  0.54207  0.06726  1.0000
  C   C31       1.0  0.71564  0.35943  0.24282  1.0000
  C   C32       1.0  0.64328  0.34266  0.23700  1.0000
  C   C33       1.0  0.65895  0.28569  0.26672  1.0000
  C   C34       1.0  0.68590  0.37194  0.23111  1.0000
  C   C35       1.0  0.63010  0.29974  0.24753  1.0000
  C   C36       1.0  0.70168  0.31567  0.26543  1.0000
  C   C37       1.0  0.76058  0.39162  0.24010  1.0000
  C   C38       1.0  0.78962  0.38349  0.20565  1.0000
  C   C39       1.0  0.83230  0.41315  0.21505  1.0000
  C   C40       1.0  0.84724  0.45243  0.25836  1.0000
  C   C41       1.0  0.81871  0.46138  0.28916  1.0000
  C   C42       1.0  0.77630  0.43159  0.27955  1.0000
  C   C43       1.0  0.52297  0.41949  0.26342  1.0000
  C   C44       1.0  0.57082  0.07732  0.34529  1.0000
  C   C45       1.0  0.92049  0.48965  0.23226  1.0000
  C   C46       1.0  0.50583  0.44467  0.23735  1.0000
  C   C47       1.0  0.54625  0.03905  0.29906  1.0000
  C   C48       1.0  0.95966  0.50471  0.20541  1.0000
  C   C49       1.0  0.52704  0.48347  0.30247  1.0000
  C   C50       1.0  0.50242  0.01298  0.31400  1.0000
  C   C51       1.0  0.98647  0.48625  0.31618  1.0000
  C   C52       1.0  0.50782  0.50572  0.29458  1.0000
  C   C53       1.0  0.47965  0.97199  0.29363  1.0000
  C   C54       1.0  0.02742  0.50359  0.30384  1.0000
  C   C55       1.0  0.57411  0.53833  0.44102  1.0000
  C   C56       1.0  0.43683  0.98839  0.35443  1.0000
  C   C57       1.0  0.01195  0.44381  0.51709  1.0000
  C   C58       1.0  0.28104  0.65195  0.63126  1.0000
  C   C59       1.0  0.34808  0.65404  0.65666  1.0000
  C   C60       1.0  0.34742  0.71817  0.66256  1.0000
  C   C61       1.0  0.30390  0.63179  0.63972  1.0000
  C   C62       1.0  0.36913  0.69699  0.66831  1.0000
  C   C63       1.0  0.30313  0.69523  0.63998  1.0000
  C   C64       1.0  0.37101  0.76241  0.69037  1.0000
  C   C65       1.0  0.41300  0.78914  0.66149  1.0000
  C   C66       1.0  0.43653  0.82985  0.69846  1.0000
  C   C67       1.0  0.41829  0.84539  0.76486  1.0000
  C   C68       1.0  0.37619  0.81976  0.79106  1.0000
  C   C69       1.0  0.35322  0.77917  0.75272  1.0000
  C   C70       1.0  0.44827  0.54227  0.75356  1.0000
  C   C71       1.0  0.46225  0.92147  0.78363  1.0000
  C   C72       1.0  0.07409  0.54888  0.70222  1.0000
  C   C73       1.0  0.46487  0.51916  0.74452  1.0000
  C   C74       1.0  0.48721  0.96359  0.77640  1.0000
  C   C75       1.0  0.03244  0.53064  0.70145  1.0000
  C   C76       1.0  0.43920  0.48077  0.66877  1.0000
  C   C77       1.0  0.53095  0.98573  0.75032  1.0000
  C   C78       1.0  0.00743  0.55175  0.58594  1.0000
  C   C79       1.0  0.45481  0.45572  0.66765  1.0000
  C   C80       1.0  0.55709  0.02753  0.75820  1.0000
  C   C81       1.0  0.96664  0.53657  0.59758  1.0000
  C   C82       1.0  0.70076  0.37360  0.73458  1.0000
  C   C83       1.0  0.62899  0.35593  0.74371  1.0000
  C   C84       1.0  0.64372  0.30014  0.74549  1.0000
  C   C85       1.0  0.67165  0.38560  0.73674  1.0000
  C   C86       1.0  0.61546  0.31319  0.74689  1.0000
  C   C87       1.0  0.68590  0.33067  0.73796  1.0000
  C   C88       1.0  0.59941  0.36906  0.75403  1.0000
  C   C89       1.0  0.63107  0.25484  0.76545  1.0000
  C   C90       1.0  0.60595  0.41125  0.68440  1.0000
  C   C91       1.0  0.59148  0.22600  0.68479  1.0000
  C   C92       1.0  0.57945  0.42416  0.70322  1.0000
  C   C93       1.0  0.57964  0.18283  0.71850  1.0000
  C   C94       1.0  0.54520  0.39483  0.79345  1.0000
  C   C95       1.0  0.60704  0.16733  0.83902  1.0000
  C   C96       1.0  0.53747  0.35247  0.85916  1.0000
  C   C97       1.0  0.64683  0.19578  0.91806  1.0000
  C   C98       1.0  0.56414  0.33996  0.83925  1.0000
  C   C99       1.0  0.65876  0.23887  0.87908  1.0000
  C   C100      1.0  0.51248  0.43657  0.77446  1.0000
  C   C101      1.0  0.56983  0.09307  0.82722  1.0000
  C   C102      1.0  0.90693  0.48728  0.75888  1.0000
  C   C103      1.0  0.49806  0.46389  0.75179  1.0000
  C   C104      1.0  0.54384  0.05339  0.79732  1.0000
  C   C105      1.0  0.94472  0.49838  0.72903  1.0000
  C   C106      1.0  0.52335  0.50335  0.81294  1.0000
  C   C107      1.0  0.49975  0.03214  0.80499  1.0000
  C   C108      1.0  0.96840  0.47569  0.82612  1.0000
  C   C109      1.0  0.50843  0.52932  0.80699  1.0000
  C   C110      1.0  0.47373  0.99079  0.79524  1.0000
  C   C111      1.0  0.00881  0.49064  0.81283  1.0000
  C   C112      1.0  0.57633  0.55799  0.93923  1.0000
  C   C113      1.0  0.43732  0.01511  0.84998  1.0000
  C   C114      1.0  0.99085  0.43103  0.02594  1.0000
  N   N1        1.0  0.42425  0.52442  0.26889  1.0000
  N   N2        1.0  0.46402  0.87043  0.29495  1.0000
  N   N3        1.0  0.12794  0.58308  0.21030  1.0000
  N   N4        1.0  0.53226  0.39045  0.32789  1.0000
  N   N5        1.0  0.59571  0.10578  0.43084  1.0000
  N   N6        1.0  0.89014  0.48272  0.28725  1.0000
  N   N7        1.0  0.43088  0.55591  0.79983  1.0000
  N   N8        1.0  0.44367  0.88296  0.82931  1.0000
  N   N9        1.0  0.11203  0.57095  0.72800  1.0000
  N   N10       1.0  0.52057  0.40667  0.83945  1.0000
  N   N11       1.0  0.59408  0.12346  0.90213  1.0000
  N   N12       1.0  0.87861  0.48503  0.81313  1.0000
  O   O1        1.0  0.53600  0.54236  0.36328  1.0000
  O   O2        1.0  0.43954  0.95324  0.33364  1.0000
  O   O3        1.0  0.04689  0.48176  0.44119  1.0000
  O   O4        1.0  0.56998  0.50442  0.37585  1.0000
  O   O5        1.0  0.47888  0.02439  0.36657  1.0000
  O   O6        1.0  0.97579  0.45138  0.45987  1.0000
  O   O7        1.0  0.54072  0.56636  0.86553  1.0000
  O   O8        1.0  0.43211  0.97985  0.79236  1.0000
  O   O9        1.0  0.02294  0.46096  0.91519  1.0000
  O   O10       1.0  0.56685  0.52148  0.87588  1.0000
  O   O11       1.0  0.47744  0.05115  0.81253  1.0000
  O   O12       1.0  0.95322  0.43539  0.93906  1.0000
  C   C115      1.0  0.17521  0.63503  0.53417  1.0000
  C   C116      1.0  0.15254  0.59509  0.63873  1.0000
  C  Sn1       1.0  0.17263  0.57100  0.74905  1.0000
  C  Sn2       1.0  0.21624  0.58728  0.75456  1.0000
  C   C117      1.0  0.23864  0.62728  0.64954  1.0000
  C   C118      1.0  0.21822  0.65112  0.53958  1.0000
  H   H61       1.0  0.15942  0.65349  0.44916  1.0000
  O  Te1       1.0  0.14951  0.53115  0.85259  1.0000
  O  Te2       1.0  0.23711  0.56387  0.86369  1.0000
  H   H62       1.0  0.23579  0.68205  0.45873  1.0000
  Mg  Mg1       1.0  0.19202  0.51123  0.98006  1.0000
  C   C119      1.0  0.36446  0.57376  0.60707  1.0000
  C   C120      1.0  0.40485  0.58116  0.70324  1.0000
  C  Sn3       1.0  0.42942  0.61478  0.79505  1.0000
  C  Sn4       1.0  0.41317  0.64142  0.79028  1.0000
  C   C121      1.0  0.37271  0.63373  0.69378  1.0000
  C   C122      1.0  0.34839  0.60001  0.60235  1.0000
  H   H63       1.0  0.34563  0.54765  0.53640  1.0000
  O  Te3       1.0  0.46972  0.62174  0.89043  1.0000
  O  Te4       1.0  0.43705  0.67524  0.88089  1.0000
  H   H64       1.0  0.31711  0.59427  0.52799  1.0000
  Mg  Mg2       1.0  0.49019  0.67187  0.99227  1.0000
  C   C123      1.0  0.58812  0.17894  0.20677  1.0000
  C   C124      1.0  0.60583  0.15408  0.33377  1.0000
  C  Sn5       1.0  0.64322  0.17275  0.45406  1.0000
  C  Sn6       1.0  0.66316  0.21714  0.44679  1.0000
  C   C125      1.0  0.64516  0.24173  0.31933  1.0000
  C   C126      1.0  0.60775  0.22272  0.19956  1.0000
  H   H65       1.0  0.55916  0.16424  0.11417  1.0000
  O  Te5       1.0  0.66050  0.14745  0.58004  1.0000
  O  Te6       1.0  0.70054  0.23662  0.56546  1.0000
  H   H66       1.0  0.59403  0.24198  0.10133  1.0000
  Mg  Mg3       1.0  0.71187  0.18869  0.71301  1.0000
  C   C127      1.0  0.78369  0.39644  0.69317  1.0000
  C   C128      1.0  0.75282  0.39996  0.73575  1.0000
  C  Sn7       1.0  0.76353  0.43578  0.79549  1.0000
  C  Sn8       1.0  0.80596  0.46865  0.81274  1.0000
  C   C129      1.0  0.83661  0.46485  0.76969  1.0000
  C   C130      1.0  0.82555  0.42885  0.71009  1.0000
  H   H67       1.0  0.77513  0.36860  0.64696  1.0000
  O  Te7       1.0  0.73229  0.43878  0.83751  1.0000
  O  Te8       1.0  0.81753  0.50481  0.87208  1.0000
  H   H68       1.0  0.84946  0.42615  0.67703  1.0000
  Mg  Mg4       1.0  0.76364  0.49424  0.91296  1.0000
  C   C131      1.0  0.55306  0.32891  0.35092  1.0000
  C   C132      1.0  0.55645  0.36944  0.30932  1.0000
  C  Sn9       1.0  0.58875  0.40439  0.22142  1.0000
  C  Sn10      1.0  0.61814  0.39855  0.17442  1.0000
  C   C133      1.0  0.61445  0.35787  0.21652  1.0000
  C   C134      1.0  0.58202  0.32312  0.30455  1.0000
  H   H69       1.0  0.52795  0.30202  0.41894  1.0000
  O  Te9       1.0  0.59170  0.44466  0.18093  1.0000
  O  Te10      1.0  0.65071  0.43292  0.08645  1.0000
  H   H70       1.0  0.57938  0.29174  0.33663  1.0000
  Mg  Mg5       1.0  0.64158  0.48160  0.06006  1.0000
  C   C135      1.0  0.42426  0.61308  0.30139  1.0000
  C   C136      1.0  0.38741  0.61288  0.18837  1.0000
  C  Sn11      1.0  0.35990  0.58064  0.09055  1.0000
  C  Sn12      1.0  0.36954  0.54803  0.10649  1.0000
  C   C137      1.0  0.40647  0.54849  0.22002  1.0000
  C   C138      1.0  0.43379  0.58091  0.31724  1.0000
  H   H71       1.0  0.44539  0.63815  0.37670  1.0000
  O  Te11      1.0  0.36460  0.53239  0.97820  1.0000
  O  Te12      1.0  0.34259  0.51541  0.01031  1.0000
  H   H72       1.0  0.46230  0.58104  0.40483  1.0000
  Mg  Mg6       1.0  0.33780  0.48110  0.87465  1.0000
