data_image0
_chemical_formula_structural       H72C114N12O24C2Sn2C2HTe2HMgC2Sn2C2HTe2HMgC2Sn2C2HTe2HMgC2Sn2C2HTe2HMgC2Sn2C2HTe2HMgC2Sn2C2HTe2HMg
_chemical_formula_sum              "H84 C138 N12 O24 Sn12 Te12 Mg6"
_cell_length_a       37.6884
_cell_length_b       37.7865
_cell_length_c       7.9479
_cell_angle_alpha    89.5656
_cell_angle_beta     89.5752
_cell_angle_gamma    120.317

_symmetry_space_group_name_H-M    'P1'
_space_group_IT_number       1

loop_
  _space_group_symop_operation_xyz
  'x, y, z'

loop_
  _atom_site_type_symbol
  _atom_site_label
  _atom_site_symmetry_multiplicity
  _atom_site_fract_x
  _atom_site_fract_y
  _atom_site_fract_z
  _atom_site_occupancy
  H   H1        1.0  0.29756  0.58945  0.24810  1.0000
  H   H2        1.0  0.41078  0.70492  0.26102  1.0000
  H   H3        1.0  0.29532  0.70192  0.25316  1.0000
  H   H4        1.0  0.23966  0.66260  0.08834  1.0000
  H   H5        1.0  0.16361  0.62492  0.09701  1.0000
  H   H6        1.0  0.16461  0.53219  0.41126  1.0000
  H   H7        1.0  0.24023  0.57039  0.40650  1.0000
  H   H8        1.0  0.43222  0.45241  0.13639  1.0000
  H   H9        1.0  0.54412  0.97749  0.10572  1.0000
  H   H10       1.0  0.02285  0.56741  0.11837  1.0000
  H   H11       1.0  0.48391  0.43017  0.15418  1.0000
  H   H12       1.0  0.56502  0.05133  0.10825  1.0000
  H   H13       1.0  0.94847  0.51583  0.13994  1.0000
  H   H14       1.0  0.70176  0.40710  0.27658  1.0000
  H   H15       1.0  0.58906  0.29136  0.26577  1.0000
  H   H16       1.0  0.70497  0.29528  0.25021  1.0000
  H   H17       1.0  0.66451  0.42577  0.13064  1.0000
  H   H18       1.0  0.62761  0.46417  0.14423  1.0000
  H   H19       1.0  0.52945  0.36402  0.42254  1.0000
  H   H20       1.0  0.56724  0.32668  0.41586  1.0000
  H   H21       1.0  0.56765  0.58702  0.05166  1.0000
  H   H22       1.0  0.40833  0.97982  0.06102  1.0000
  H   H23       1.0  0.02062  0.43544  0.08364  1.0000
  H   H24       1.0  0.59125  0.61844  0.37493  1.0000
  H   H25       1.0  0.37818  0.96697  0.38170  1.0000
  H   H26       1.0  0.02875  0.41148  0.39190  1.0000
  H   H27       1.0  0.47451  0.57650  0.33342  1.0000
  H   H28       1.0  0.42205  0.89424  0.33443  1.0000
  H   H29       1.0  0.10441  0.52716  0.33982  1.0000
  H   H30       1.0  0.52550  0.42135  0.35167  1.0000
  H   H31       1.0  0.57474  0.10100  0.30098  1.0000
  H   H32       1.0  0.89559  0.47449  0.34210  1.0000
  H   H33       1.0  0.29970  0.59257  0.75581  1.0000
  H   H34       1.0  0.41124  0.70944  0.76994  1.0000
  H   H35       1.0  0.29433  0.70339  0.76256  1.0000
  H   H36       1.0  0.33836  0.57590  0.61774  1.0000
  H   H37       1.0  0.23883  0.66433  0.60781  1.0000
  H   H38       1.0  0.37580  0.53800  0.62945  1.0000
  H   H39       1.0  0.16280  0.62476  0.61404  1.0000
  H   H40       1.0  0.47095  0.63587  0.91422  1.0000
  H   H41       1.0  0.16628  0.52944  0.89965  1.0000
  H   H42       1.0  0.43274  0.67274  0.90890  1.0000
  H   H43       1.0  0.24179  0.56949  0.89881  1.0000
  H   H44       1.0  0.43139  0.45560  0.64901  1.0000
  H   H45       1.0  0.54193  0.98015  0.60408  1.0000
  H   H46       1.0  0.02364  0.56480  0.62002  1.0000
  H   H47       1.0  0.48279  0.43272  0.65408  1.0000
  H   H48       1.0  0.56352  0.05418  0.60906  1.0000
  H   H49       1.0  0.94907  0.51287  0.63821  1.0000
  H   H50       1.0  0.70428  0.41097  0.77119  1.0000
  H   H51       1.0  0.59070  0.29622  0.74735  1.0000
  H   H52       1.0  0.70544  0.29790  0.75323  1.0000
  H   H53       1.0  0.66626  0.42967  0.61405  1.0000
  H   H54       1.0  0.57374  0.24028  0.59256  1.0000
  H   H55       1.0  0.62898  0.46792  0.62630  1.0000
  H   H56       1.0  0.53498  0.16459  0.59959  1.0000
  H   H57       1.0  0.53318  0.36960  0.92101  1.0000
  H   H58       1.0  0.62940  0.16529  0.90355  1.0000
  H   H59       1.0  0.57123  0.33248  0.91418  1.0000
  H   H60       1.0  0.66710  0.24066  0.90209  1.0000
  H   H61       1.0  0.56393  0.58544  0.55537  1.0000
  H   H62       1.0  0.41491  0.97761  0.54972  1.0000
  H   H63       1.0  0.02306  0.43648  0.57687  1.0000
  H   H64       1.0  0.59330  0.62133  0.87222  1.0000
  H   H65       1.0  0.37850  0.97111  0.87066  1.0000
  H   H66       1.0  0.02978  0.40933  0.91127  1.0000
  H   H67       1.0  0.47638  0.58054  0.84366  1.0000
  H   H68       1.0  0.42091  0.89748  0.84487  1.0000
  H   H69       1.0  0.10523  0.52407  0.83671  1.0000
  H   H70       1.0  0.52969  0.42708  0.85723  1.0000
  H   H71       1.0  0.57526  0.10455  0.81150  1.0000
  H   H72       1.0  0.89792  0.47243  0.84922  1.0000
  C   C1        1.0  0.29126  0.64302  0.24964  1.0000
  C   C2        1.0  0.35696  0.64454  0.25381  1.0000
  C   C3        1.0  0.35569  0.70870  0.25765  1.0000
  C   C4        1.0  0.31384  0.62277  0.25023  1.0000
  C   C5        1.0  0.37738  0.68752  0.25770  1.0000
  C   C6        1.0  0.31262  0.68599  0.25319  1.0000
  C   C7        1.0  0.24590  0.61972  0.24814  1.0000
  C   C8        1.0  0.22336  0.63449  0.16298  1.0000
  C   C9        1.0  0.18053  0.61341  0.16543  1.0000
  C   C10       1.0  0.15891  0.57619  0.25527  1.0000
  C   C11       1.0  0.18102  0.56062  0.33862  1.0000
  C   C12       1.0  0.22373  0.58208  0.33508  1.0000
  C   C13       1.0  0.43880  0.52315  0.20789  1.0000
  C   C14       1.0  0.47503  0.91280  0.19909  1.0000
  C   C15       1.0  0.08724  0.56158  0.20036  1.0000
  C   C16       1.0  0.47139  0.51213  0.23474  1.0000
  C   C17       1.0  0.48511  0.95630  0.21847  1.0000
  C   C18       1.0  0.04316  0.52966  0.23445  1.0000
  C   C19       1.0  0.46269  0.47264  0.18594  1.0000
  C   C20       1.0  0.52383  0.98746  0.15722  1.0000
  C   C21       1.0  0.01237  0.53762  0.17727  1.0000
  C   C22       1.0  0.49179  0.46053  0.19701  1.0000
  C   C23       1.0  0.53521  0.02856  0.15986  1.0000
  C   C24       1.0  0.97081  0.50854  0.19039  1.0000
  C   C25       1.0  0.70874  0.35402  0.26390  1.0000
  C   C26       1.0  0.64265  0.35179  0.26981  1.0000
  C   C27       1.0  0.64448  0.28809  0.25605  1.0000
  C   C28       1.0  0.68577  0.37384  0.27035  1.0000
  C   C29       1.0  0.62248  0.30891  0.26402  1.0000
  C   C30       1.0  0.68757  0.31107  0.25570  1.0000
  C   C31       1.0  0.61928  0.37352  0.27438  1.0000
  C   C32       1.0  0.63538  0.41245  0.19894  1.0000
  C   C33       1.0  0.61465  0.43418  0.20342  1.0000
  C   C34       1.0  0.57616  0.41686  0.28441  1.0000
  C   C35       1.0  0.55913  0.37762  0.35793  1.0000
  C   C36       1.0  0.58046  0.35644  0.35317  1.0000
  C   C37       1.0  0.56560  0.47696  0.24471  1.0000
  C   C38       1.0  0.51835  0.08530  0.20808  1.0000
  C   C39       1.0  0.91282  0.43485  0.25050  1.0000
  C   C40       1.0  0.53211  0.48711  0.25494  1.0000
  C   C41       1.0  0.50839  0.04175  0.21995  1.0000
  C   C42       1.0  0.95663  0.46881  0.25888  1.0000
  C   C43       1.0  0.54030  0.52573  0.30444  1.0000
  C   C44       1.0  0.47036  0.01099  0.27968  1.0000
  C   C45       1.0  0.98701  0.46143  0.31755  1.0000
  C   C46       1.0  0.51071  0.53750  0.29603  1.0000
  C   C47       1.0  0.45953  0.96980  0.28158  1.0000
  C   C48       1.0  0.02866  0.49111  0.30758  1.0000
  C   C49       1.0  0.56745  0.58783  0.41778  1.0000
  C   C50       1.0  0.40986  0.97591  0.41323  1.0000
  C   C51       1.0  0.02187  0.43461  0.43910  1.0000
  C   C52       1.0  0.29176  0.64506  0.75775  1.0000
  C   C53       1.0  0.35840  0.64849  0.76224  1.0000
  C   C54       1.0  0.35526  0.71168  0.76599  1.0000
  C   C55       1.0  0.31531  0.62586  0.75815  1.0000
  C   C56       1.0  0.37787  0.69141  0.76611  1.0000
  C   C57       1.0  0.31220  0.68806  0.76205  1.0000
  C   C58       1.0  0.24642  0.62045  0.75461  1.0000
  C   C59       1.0  0.38219  0.62715  0.76362  1.0000
  C   C60       1.0  0.36700  0.58890  0.68666  1.0000
  C   C61       1.0  0.22311  0.63519  0.67574  1.0000
  C   C62       1.0  0.38799  0.56738  0.69033  1.0000
  C   C63       1.0  0.18031  0.61308  0.67669  1.0000
  C   C64       1.0  0.42592  0.58430  0.77208  1.0000
  C   C65       1.0  0.15942  0.57467  0.75806  1.0000
  C   C66       1.0  0.44199  0.62286  0.84744  1.0000
  C   C67       1.0  0.18223  0.55895  0.83413  1.0000
  C   C68       1.0  0.42041  0.64376  0.84354  1.0000
  C   C69       1.0  0.22492  0.58154  0.83257  1.0000
  C   C70       1.0  0.43946  0.52678  0.72173  1.0000
  C   C71       1.0  0.47351  0.91582  0.70647  1.0000
  C   C72       1.0  0.08759  0.55943  0.70649  1.0000
  C   C73       1.0  0.47192  0.51539  0.74332  1.0000
  C   C74       1.0  0.48416  0.95949  0.72801  1.0000
  C   C75       1.0  0.04366  0.52711  0.73846  1.0000
  C   C76       1.0  0.46243  0.47573  0.69336  1.0000
  C   C77       1.0  0.52241  0.99040  0.66127  1.0000
  C   C78       1.0  0.01299  0.53496  0.67883  1.0000
  C   C79       1.0  0.49137  0.46331  0.69641  1.0000
  C   C80       1.0  0.53417  0.03160  0.66500  1.0000
  C   C81       1.0  0.97147  0.50578  0.68970  1.0000
  C   C82       1.0  0.71033  0.35723  0.76213  1.0000
  C   C83       1.0  0.64484  0.35613  0.75905  1.0000
  C   C84       1.0  0.64555  0.29180  0.75006  1.0000
  C   C85       1.0  0.68795  0.37770  0.76429  1.0000
  C   C86       1.0  0.62410  0.31322  0.75144  1.0000
  C   C87       1.0  0.68859  0.31427  0.75471  1.0000
  C   C88       1.0  0.62180  0.37820  0.76313  1.0000
  C   C89       1.0  0.62331  0.24654  0.74755  1.0000
  C   C90       1.0  0.63742  0.41669  0.68430  1.0000
  C   C91       1.0  0.58573  0.22404  0.66429  1.0000
  C   C92       1.0  0.61656  0.43835  0.68874  1.0000
  C   C93       1.0  0.56381  0.18134  0.66545  1.0000
  C   C94       1.0  0.57858  0.42136  0.77385  1.0000
  C   C95       1.0  0.57952  0.15980  0.75179  1.0000
  C   C96       1.0  0.56227  0.38271  0.85210  1.0000
  C   C97       1.0  0.61736  0.18173  0.83335  1.0000
  C   C98       1.0  0.58364  0.36161  0.84702  1.0000
  C   C99       1.0  0.63878  0.22436  0.83149  1.0000
  C   C100      1.0  0.56571  0.47970  0.72293  1.0000
  C   C101      1.0  0.51850  0.08887  0.72239  1.0000
  C   C102      1.0  0.91343  0.43247  0.74813  1.0000
  C   C103      1.0  0.53245  0.48996  0.74554  1.0000
  C   C104      1.0  0.50824  0.04519  0.73209  1.0000
  C   C105      1.0  0.95734  0.46600  0.75689  1.0000
  C   C106      1.0  0.54140  0.52864  0.79713  1.0000
  C   C107      1.0  0.47054  0.01468  0.79602  1.0000
  C   C108      1.0  0.98759  0.45854  0.81612  1.0000
  C   C109      1.0  0.51186  0.54055  0.79901  1.0000
  C   C110      1.0  0.45945  0.97340  0.79754  1.0000
  C   C111      1.0  0.02919  0.48854  0.81139  1.0000
  C   C112      1.0  0.56997  0.59040  0.91396  1.0000
  C   C113      1.0  0.40859  0.97954  0.92298  1.0000
  C   C114      1.0  0.02165  0.43235  0.94671  1.0000
  N   N1        1.0  0.44762  0.56061  0.27031  1.0000
  N   N2        1.0  0.43795  0.88361  0.26858  1.0000
  N   N3        1.0  0.11575  0.55295  0.26698  1.0000
  N   N4        1.0  0.55324  0.43695  0.29199  1.0000
  N   N5        1.0  0.55863  0.11315  0.24917  1.0000
  N   N6        1.0  0.88433  0.44664  0.28784  1.0000
  N   N7        1.0  0.44931  0.56481  0.78160  1.0000
  N   N8        1.0  0.43666  0.88675  0.77857  1.0000
  N   N9        1.0  0.11632  0.55052  0.76828  1.0000
  N   N10       1.0  0.55550  0.44130  0.78407  1.0000
  N   N11       1.0  0.55930  0.11662  0.75748  1.0000
  N   N12       1.0  0.88573  0.44485  0.79192  1.0000
  O   O1        1.0  0.52836  0.57830  0.34360  1.0000
  O   O2        1.0  0.41945  0.94616  0.34263  1.0000
  O   O3        1.0  0.05176  0.47453  0.36761  1.0000
  O   O4        1.0  0.57712  0.55799  0.35731  1.0000
  O   O5        1.0  0.43760  0.01472  0.33508  1.0000
  O   O6        1.0  0.98205  0.42527  0.38245  1.0000
  O   O7        1.0  0.40712  0.49992  0.13131  1.0000
  O   O8        1.0  0.49857  0.90499  0.12020  1.0000
  O   O9        1.0  0.09601  0.59224  0.11337  1.0000
  O   O10       1.0  0.60012  0.50202  0.19088  1.0000
  O   O11       1.0  0.49292  0.09459  0.16257  1.0000
  O   O12       1.0  0.90381  0.40011  0.20729  1.0000
  O   O13       1.0  0.53006  0.58117  0.84995  1.0000
  O   O14       1.0  0.42017  0.95006  0.86624  1.0000
  O   O15       1.0  0.05209  0.47193  0.87437  1.0000
  O   O16       1.0  0.57908  0.56112  0.84217  1.0000
  O   O17       1.0  0.43893  0.01916  0.85863  1.0000
  O   O18       1.0  0.98277  0.42195  0.87559  1.0000
  O   O19       1.0  0.40713  0.50346  0.64930  1.0000
  O   O20       1.0  0.49639  0.90771  0.62408  1.0000
  O   O21       1.0  0.09615  0.59062  0.62377  1.0000
  O   O22       1.0  0.59809  0.50349  0.64914  1.0000
  O   O23       1.0  0.49293  0.09839  0.68198  1.0000
  O   O24       1.0  0.90378  0.39796  0.69935  1.0000
  C   C115      1.0  0.43742  0.81084  0.17245  1.0000
  C   C116      1.0  0.42444  0.83672  0.23783  1.0000
  C  Sn1       1.0  0.38715  0.82037  0.32620  1.0000
  C  Sn2       1.0  0.36248  0.77729  0.34939  1.0000
  C   C117      1.0  0.37575  0.75166  0.28360  1.0000
  C   C118      1.0  0.41311  0.76835  0.19533  1.0000
  H   H73       1.0  0.46634  0.82375  0.10423  1.0000
  O  Te1       1.0  0.37464  0.84666  0.39063  1.0000
  O  Te2       1.0  0.32509  0.76012  0.43727  1.0000
  H   H74       1.0  0.42317  0.74830  0.14482  1.0000
  Mg  Mg1       1.0  0.32124  0.80863  0.50125  1.0000
  C   C119      1.0  0.63812  0.21057  0.33717  1.0000
  C   C120      1.0  0.62837  0.23801  0.26131  1.0000
  C  Sn3       1.0  0.59112  0.22348  0.17796  1.0000
  C  Sn4       1.0  0.56318  0.18065  0.17067  1.0000
  C   C121      1.0  0.57321  0.15344  0.24706  1.0000
  C   C122      1.0  0.61057  0.16832  0.33009  1.0000
  H   H75       1.0  0.66702  0.22208  0.40150  1.0000
  O  Te3       1.0  0.58187  0.25132  0.10280  1.0000
  O  Te4       1.0  0.52573  0.16529  0.08824  1.0000
  H   H76       1.0  0.61810  0.14706  0.38891  1.0000
  Mg  Mg2       1.0  0.52703  0.21546  0.00512  1.0000
  C   C123      1.0  0.42356  0.79097  0.67282  1.0000
  C   C124      1.0  0.38722  0.76237  0.75511  1.0000
  C  Sn5       1.0  0.36443  0.77542  0.84817  1.0000
  C  Sn6       1.0  0.37835  0.81792  0.85878  1.0000
  C   C125      1.0  0.41472  0.84629  0.77590  1.0000
  C   C126      1.0  0.43730  0.83289  0.68317  1.0000
  H   H77       1.0  0.44101  0.78061  0.60100  1.0000
  O  Te5       1.0  0.32820  0.74644  0.92965  1.0000
  O  Te6       1.0  0.35616  0.83181  0.95087  1.0000
  H   H78       1.0  0.46541  0.85504  0.61938  1.0000
  Mg  Mg3       1.0  0.31187  0.78367  0.03984  1.0000
  C   C127      1.0  0.78715  0.42639  0.86847  1.0000
  C   C128      1.0  0.76055  0.39053  0.78321  1.0000
  C  Sn7       1.0  0.77595  0.36884  0.69785  1.0000
  C  Sn8       1.0  0.81879  0.38338  0.69813  1.0000
  C   C129      1.0  0.84514  0.41927  0.78390  1.0000
  C   C130      1.0  0.82941  0.44075  0.86886  1.0000
  H   H79       1.0  0.77498  0.44299  0.93429  1.0000
  O  Te7       1.0  0.74894  0.33307  0.61325  1.0000
  O  Te8       1.0  0.83500  0.36229  0.61389  1.0000
  H   H80       1.0  0.85001  0.46850  0.93496  1.0000
  Mg  Mg4       1.0  0.78578  0.31509  0.51672  1.0000
  C   C131      1.0  0.42674  0.63783  0.35467  1.0000
  C   C132      1.0  0.39079  0.62838  0.26923  1.0000
  C  Sn9       1.0  0.36980  0.59198  0.17943  1.0000
  C  Sn10      1.0  0.38516  0.56458  0.17536  1.0000
  C   C133      1.0  0.42113  0.57429  0.26135  1.0000
  C   C134      1.0  0.44189  0.61081  0.35077  1.0000
  H   H81       1.0  0.44279  0.66607  0.42394  1.0000
  O  Te9       1.0  0.33395  0.58303  0.09472  1.0000
  O  Te10      1.0  0.36478  0.52798  0.08664  1.0000
  H   H82       1.0  0.46970  0.61810  0.41700  1.0000
  Mg  Mg5       1.0  0.31394  0.52619  0.99119  1.0000
  C   C135      1.0  0.78813  0.36519  0.17237  1.0000
  C   C136      1.0  0.75946  0.37264  0.25261  1.0000
  C  Sn11      1.0  0.77262  0.40783  0.34862  1.0000
  C  Sn12      1.0  0.81530  0.43605  0.36433  1.0000
  C   C137      1.0  0.84374  0.42834  0.28347  1.0000
  C   C138      1.0  0.83023  0.39301  0.18774  1.0000
  H   H83       1.0  0.77768  0.33788  0.09823  1.0000
  O  Te11      1.0  0.74356  0.41479  0.42800  1.0000
  O  Te12      1.0  0.82929  0.47147  0.45947  1.0000
  H   H84       1.0  0.85244  0.38727  0.12555  1.0000
  Mg  Mg6       1.0  0.77779  0.46743  0.54384  1.0000
