data_image0
_chemical_formula_structural       H60C84N12O24SnCSn2CSnTe4Mg2SnCSn2CSnTe4Mg2SnCSn2CSnTe4Mg2SnCSn2CSnTe4Mg2SnCSn2CSnTe4Mg2SnCSn2CSnTe4Mg2SnCSn2CSnTe4Mg2SnCSn2CSnTe4Mg2SnCSn2CSnTe4Mg2SnCSn2CSnTe4Mg2SnCSn2CSnTe4Mg2SnCSn2CSnTe4Mg2
_chemical_formula_sum              "H60 C108 N12 O24 Sn48 Te48 Mg24"
_cell_length_a       37.3432
_cell_length_b       37.4668
_cell_length_c       8.77484
_cell_angle_alpha    88.5501
_cell_angle_beta     91.0276
_cell_angle_gamma    120.236

_symmetry_space_group_name_H-M    'P1'
_space_group_IT_number       1

loop_
  _space_group_symop_operation_xyz
  'x, y, z'

loop_
  _atom_site_type_symbol
  _atom_site_label
  _atom_site_symmetry_multiplicity
  _atom_site_fract_x
  _atom_site_fract_y
  _atom_site_fract_z
  _atom_site_occupancy
  H   H1        1.0  0.30373  0.58944  0.37706  1.0000
  H   H2        1.0  0.41213  0.71066  0.37804  1.0000
  H   H3        1.0  0.29077  0.69706  0.37644  1.0000
  H   H4        1.0  0.43755  0.45961  0.41691  1.0000
  H   H5        1.0  0.53589  0.97718  0.39494  1.0000
  H   H6        1.0  0.02471  0.56168  0.42884  1.0000
  H   H7        1.0  0.47636  0.42687  0.31528  1.0000
  H   H8        1.0  0.56593  0.04826  0.28064  1.0000
  H   H9        1.0  0.95153  0.52253  0.33163  1.0000
  H   H10       1.0  0.70080  0.40805  0.19814  1.0000
  H   H11       1.0  0.58805  0.29061  0.18745  1.0000
  H   H12       1.0  0.70586  0.29609  0.17927  1.0000
  H   H13       1.0  0.98231  0.37466  0.11325  1.0000
  H   H14       1.0  0.63001  0.60945  0.12714  1.0000
  H   H15       1.0  0.37889  0.01152  0.11376  1.0000
  H   H16       1.0  0.99020  0.39285  0.30451  1.0000
  H   H17       1.0  0.60985  0.59565  0.31679  1.0000
  H   H18       1.0  0.39450  0.00617  0.30308  1.0000
  H   H19       1.0  0.04473  0.44227  0.03096  1.0000
  H   H20       1.0  0.56326  0.60619  0.04196  1.0000
  H   H21       1.0  0.38426  0.94993  0.03617  1.0000
  H   H22       1.0  0.05960  0.41870  0.18083  1.0000
  H   H23       1.0  0.58648  0.64223  0.19410  1.0000
  H   H24       1.0  0.34917  0.93549  0.19369  1.0000
  H   H25       1.0  0.48399  0.58661  0.26680  1.0000
  H   H26       1.0  0.41028  0.89286  0.25707  1.0000
  H   H27       1.0  0.10553  0.51864  0.26552  1.0000
  H   H28       1.0  0.55373  0.44619  0.38262  1.0000
  H   H29       1.0  0.54996  0.10342  0.34517  1.0000
  H   H30       1.0  0.89263  0.44574  0.38059  1.0000
  H   H31       1.0  0.30231  0.59188  0.89836  1.0000
  H   H32       1.0  0.41234  0.71166  0.88272  1.0000
  H   H33       1.0  0.29239  0.70135  0.88653  1.0000
  H   H34       1.0  0.43770  0.46001  0.91233  1.0000
  H   H35       1.0  0.54419  0.97907  0.89712  1.0000
  H   H36       1.0  0.02244  0.56031  0.91172  1.0000
  H   H37       1.0  0.47842  0.42977  0.80796  1.0000
  H   H38       1.0  0.57437  0.05105  0.78761  1.0000
  H   H39       1.0  0.95059  0.51900  0.80564  1.0000
  H   H40       1.0  0.70365  0.41180  0.68779  1.0000
  H   H41       1.0  0.58988  0.29500  0.67480  1.0000
  H   H42       1.0  0.70681  0.29879  0.67649  1.0000
  H   H43       1.0  0.98936  0.37404  0.61613  1.0000
  H   H44       1.0  0.62802  0.61519  0.61963  1.0000
  H   H45       1.0  0.38777  0.01577  0.62337  1.0000
  H   H46       1.0  0.99728  0.39192  0.80755  1.0000
  H   H47       1.0  0.61067  0.60332  0.81327  1.0000
  H   H48       1.0  0.40114  0.00917  0.81479  1.0000
  H   H49       1.0  0.04891  0.44413  0.53281  1.0000
  H   H50       1.0  0.55831  0.60623  0.54329  1.0000
  H   H51       1.0  0.39502  0.95475  0.54689  1.0000
  H   H52       1.0  0.06635  0.42169  0.67862  1.0000
  H   H53       1.0  0.58193  0.64504  0.68613  1.0000
  H   H54       1.0  0.35760  0.93945  0.69676  1.0000
  H   H55       1.0  0.48353  0.58858  0.78294  1.0000
  H   H56       1.0  0.41502  0.89712  0.78122  1.0000
  H   H57       1.0  0.10721  0.51932  0.77667  1.0000
  H   H58       1.0  0.54967  0.44335  0.86834  1.0000
  H   H59       1.0  0.55505  0.10756  0.85583  1.0000
  H   H60       1.0  0.89517  0.45191  0.86095  1.0000
  C   C1        1.0  0.29193  0.64015  0.37814  1.0000
  C   C2        1.0  0.36101  0.64785  0.37918  1.0000
  C   C3        1.0  0.35363  0.70913  0.37749  1.0000
  C   C4        1.0  0.31763  0.62286  0.37848  1.0000
  C   C5        1.0  0.37857  0.69094  0.37886  1.0000
  C   C6        1.0  0.31042  0.68333  0.37784  1.0000
  C   C7        1.0  0.45468  0.53529  0.40359  1.0000
  C   C8        1.0  0.46062  0.91647  0.39721  1.0000
  C   C9        1.0  0.08487  0.54772  0.40090  1.0000
  C   C10       1.0  0.48197  0.52038  0.34084  1.0000
  C   C11       1.0  0.47385  0.95856  0.32827  1.0000
  C   C12       1.0  0.04154  0.51968  0.34209  1.0000
  C   C13       1.0  0.46687  0.47783  0.35809  1.0000
  C   C14       1.0  0.51637  0.98728  0.33781  1.0000
  C   C15       1.0  0.01328  0.53314  0.36705  1.0000
  C   C16       1.0  0.48864  0.45996  0.30243  1.0000
  C   C17       1.0  0.53274  0.02676  0.27497  1.0000
  C   C18       1.0  0.97272  0.51113  0.31385  1.0000
  C   C19       1.0  0.70876  0.35500  0.18798  1.0000
  C   C20       1.0  0.64171  0.35185  0.19152  1.0000
  C   C21       1.0  0.64446  0.28812  0.17991  1.0000
  C   C22       1.0  0.68517  0.37457  0.19182  1.0000
  C   C23       1.0  0.62174  0.30866  0.18548  1.0000
  C   C24       1.0  0.68793  0.31168  0.18114  1.0000
  C   C25       1.0  0.54978  0.46474  0.16771  1.0000
  C   C26       1.0  0.52571  0.08228  0.13579  1.0000
  C   C27       1.0  0.91579  0.45211  0.16898  1.0000
  C   C28       1.0  0.52676  0.48422  0.22978  1.0000
  C   C29       1.0  0.50709  0.03952  0.20328  1.0000
  C   C30       1.0  0.95860  0.47425  0.23551  1.0000
  C   C31       1.0  0.54291  0.52699  0.21438  1.0000
  C   C32       1.0  0.46424  0.01149  0.19538  1.0000
  C   C33       1.0  0.98599  0.45944  0.21340  1.0000
  C   C34       1.0  0.52035  0.54487  0.26800  1.0000
  C   C35       1.0  0.44792  0.97106  0.25532  1.0000
  C   C36       1.0  0.02726  0.48225  0.26524  1.0000
  C   C37       1.0  0.99472  0.40232  0.18332  1.0000
  C   C38       1.0  0.60159  0.59312  0.19486  1.0000
  C   C39       1.0  0.39662  0.00068  0.18182  1.0000
  C   C40       1.0  0.04012  0.43214  0.15128  1.0000
  C   C41       1.0  0.57260  0.60971  0.16275  1.0000
  C   C42       1.0  0.38136  0.95539  0.15671  1.0000
  C   C43       1.0  0.29201  0.64362  0.89278  1.0000
  C   C44       1.0  0.36029  0.64943  0.89152  1.0000
  C   C45       1.0  0.35472  0.71184  0.88595  1.0000
  C   C46       1.0  0.31690  0.62538  0.89546  1.0000
  C   C47       1.0  0.37874  0.69263  0.88688  1.0000
  C   C48       1.0  0.31139  0.68689  0.88882  1.0000
  C   C49       1.0  0.45229  0.53482  0.90508  1.0000
  C   C50       1.0  0.46912  0.91867  0.89883  1.0000
  C   C51       1.0  0.08423  0.54818  0.90117  1.0000
  C   C52       1.0  0.48138  0.52176  0.84389  1.0000
  C   C53       1.0  0.48212  0.96126  0.83554  1.0000
  C   C54       1.0  0.04183  0.51908  0.83692  1.0000
  C   C55       1.0  0.46741  0.47936  0.85727  1.0000
  C   C56       1.0  0.52475  0.98974  0.84313  1.0000
  C   C57       1.0  0.01247  0.53160  0.85271  1.0000
  C   C58       1.0  0.49025  0.46284  0.79973  1.0000
  C   C59       1.0  0.54116  0.02958  0.78333  1.0000
  C   C60       1.0  0.97258  0.50829  0.79499  1.0000
  C   C61       1.0  0.71065  0.35809  0.67966  1.0000
  C   C62       1.0  0.64410  0.35599  0.67950  1.0000
  C   C63       1.0  0.64587  0.29167  0.67395  1.0000
  C   C64       1.0  0.68762  0.37828  0.68143  1.0000
  C   C65       1.0  0.62360  0.31268  0.67460  1.0000
  C   C66       1.0  0.68928  0.31479  0.67539  1.0000
  C   C67       1.0  0.55241  0.47017  0.66257  1.0000
  C   C68       1.0  0.53344  0.08523  0.64767  1.0000
  C   C69       1.0  0.91705  0.44606  0.65918  1.0000
  C   C70       1.0  0.52855  0.48822  0.72951  1.0000
  C   C71       1.0  0.51537  0.04268  0.71590  1.0000
  C   C72       1.0  0.95984  0.47069  0.72355  1.0000
  C   C73       1.0  0.54379  0.53099  0.71935  1.0000
  C   C74       1.0  0.47242  0.01505  0.71071  1.0000
  C   C75       1.0  0.98838  0.45687  0.71104  1.0000
  C   C76       1.0  0.52001  0.54747  0.77396  1.0000
  C   C77       1.0  0.45603  0.97444  0.76844  1.0000
  C   C78       1.0  0.02936  0.48147  0.76382  1.0000
  C   C79       1.0  0.00065  0.40150  0.68657  1.0000
  C   C80       1.0  0.60073  0.59857  0.69300  1.0000
  C   C81       1.0  0.40481  0.00459  0.69391  1.0000
  C   C82       1.0  0.04527  0.43343  0.65235  1.0000
  C   C83       1.0  0.56942  0.61227  0.66193  1.0000
  C   C84       1.0  0.39029  0.95957  0.66630  1.0000
  N   N1        1.0  0.46025  0.57199  0.34220  1.0000
  N   N2        1.0  0.42544  0.88433  0.33397  1.0000
  N   N3        1.0  0.11547  0.54196  0.34129  1.0000
  N   N4        1.0  0.55572  0.44016  0.26928  1.0000
  N   N5        1.0  0.55304  0.11208  0.23086  1.0000
  N   N6        1.0  0.88493  0.44538  0.26607  1.0000
  N   N7        1.0  0.45882  0.57270  0.85348  1.0000
  N   N8        1.0  0.43097  0.88763  0.85018  1.0000
  N   N9        1.0  0.11599  0.54321  0.84898  1.0000
  N   N10       1.0  0.55543  0.44195  0.75431  1.0000
  N   N11       1.0  0.56016  0.11581  0.74150  1.0000
  N   N12       1.0  0.88678  0.44449  0.74812  1.0000
  O   O1        1.0  0.42400  0.51181  0.99264  1.0000
  O   O2        1.0  0.49231  0.91277  0.98474  1.0000
  O   O3        1.0  0.08924  0.57498  0.99220  1.0000
  O   O4        1.0  0.56061  0.46981  0.03182  1.0000
  O   O5        1.0  0.51807  0.08893  0.00266  1.0000
  O   O6        1.0  0.91042  0.44283  0.03192  1.0000
  O   O7        1.0  0.97096  0.42172  0.14435  1.0000
  O   O8        1.0  0.58185  0.55065  0.15157  1.0000
  O   O9        1.0  0.43885  0.02508  0.13288  1.0000
  O   O10       1.0  0.05469  0.46767  0.24766  1.0000
  O   O11       1.0  0.53618  0.58743  0.25704  1.0000
  O   O12       1.0  0.40548  0.94280  0.25010  1.0000
  O   O13       1.0  0.42833  0.51440  0.50070  1.0000
  O   O14       1.0  0.48152  0.91213  0.49900  1.0000
  O   O15       1.0  0.09154  0.57459  0.49427  1.0000
  O   O16       1.0  0.56659  0.47959  0.53081  1.0000
  O   O17       1.0  0.52543  0.09093  0.51403  1.0000
  O   O18       1.0  0.91063  0.43004  0.53120  1.0000
  O   O19       1.0  0.97450  0.41835  0.65108  1.0000
  O   O20       1.0  0.58269  0.55573  0.65806  1.0000
  O   O21       1.0  0.44752  0.02958  0.65187  1.0000
  O   O22       1.0  0.05797  0.46814  0.75109  1.0000
  O   O23       1.0  0.53482  0.58991  0.76419  1.0000
  O   O24       1.0  0.41332  0.94683  0.76536  1.0000
  C  Sn1       1.0  0.38605  0.59197  0.49771  1.0000
  C   C85       1.0  0.39232  0.62803  0.42293  1.0000
  C  Sn2       1.0  0.41951  0.64454  0.29993  1.0000
  C  Sn3       1.0  0.44085  0.62458  0.25056  1.0000
  C   C86       1.0  0.43457  0.58853  0.32530  1.0000
  C  Sn4       1.0  0.40739  0.57200  0.44834  1.0000
  O  Te1       1.0  0.35873  0.57601  0.62041  1.0000
  O  Te2       1.0  0.42529  0.68064  0.22701  1.0000
  O  Te3       1.0  0.46819  0.64057  0.12775  1.0000
  O  Te4       1.0  0.40160  0.53593  0.52122  1.0000
  Mg  Mg1       1.0  0.46570  0.69041  0.06525  1.0000
  Mg  Mg2       1.0  0.36119  0.52612  0.68293  1.0000
  C  Sn5       1.0  0.40768  0.78966  0.49377  1.0000
  C   C87       1.0  0.37269  0.75969  0.41682  1.0000
  C  Sn6       1.0  0.35664  0.77076  0.29109  1.0000
  C  Sn7       1.0  0.37599  0.81264  0.24116  1.0000
  C   C88       1.0  0.41096  0.84258  0.31808  1.0000
  C  Sn8       1.0  0.42702  0.83155  0.44384  1.0000
  O  Te5       1.0  0.42319  0.77790  0.61918  1.0000
  O  Te6       1.0  0.32162  0.74025  0.21603  1.0000
  O  Te7       1.0  0.36044  0.82439  0.11565  1.0000
  O  Te8       1.0  0.46202  0.86203  0.51886  1.0000
  Mg  Mg3       1.0  0.31210  0.77159  0.05094  1.0000
  Mg  Mg4       1.0  0.47158  0.83072  0.68391  1.0000
  C  Sn9       1.0  0.21741  0.57910  0.24077  1.0000
  C   C89       1.0  0.24185  0.61353  0.33023  1.0000
  C  Sn10      1.0  0.22444  0.62276  0.45188  1.0000
  C  Sn11      1.0  0.18172  0.59702  0.48487  1.0000
  C   C90       1.0  0.15731  0.56261  0.39546  1.0000
  C  Sn12      1.0  0.17469  0.55336  0.27376  1.0000
  O  Te9       1.0  0.23547  0.57047  0.11972  1.0000
  O  Te10      1.0  0.24949  0.65735  0.53966  1.0000
  O  Te11      1.0  0.16368  0.60568  0.60603  1.0000
  O  Te12      1.0  0.14967  0.51879  0.18602  1.0000
  Mg  Mg5       1.0  0.21058  0.65627  0.69253  1.0000
  Mg  Mg6       1.0  0.18855  0.51983  0.03318  1.0000
  C  Sn13      1.0  0.57359  0.38030  0.35716  1.0000
  C   C91       1.0  0.58092  0.41669  0.28201  1.0000
  C  Sn14      1.0  0.60535  0.43060  0.15114  1.0000
  C  Sn15      1.0  0.62280  0.40766  0.09411  1.0000
  C   C92       1.0  0.61547  0.37130  0.16922  1.0000
  C  Sn16      1.0  0.59104  0.35736  0.30013  1.0000
  O  Te13      1.0  0.54906  0.36697  0.48780  1.0000
  O  Te14      1.0  0.61225  0.46707  0.07801  1.0000
  O  Te15      1.0  0.64898  0.41592  0.96336  1.0000
  O  Te16      1.0  0.58413  0.32091  0.37322  1.0000
  Mg  Mg7       1.0  0.64942  0.46745  0.90390  1.0000
  Mg  Mg8       1.0  0.54858  0.31539  0.54729  1.0000
  C  Sn17      1.0  0.57193  0.21118  0.12958  1.0000
  C   C93       1.0  0.60989  0.23809  0.19859  1.0000
  C  Sn18      1.0  0.63432  0.22306  0.26294  1.0000
  C  Sn19      1.0  0.62054  0.18024  0.25814  1.0000
  C   C94       1.0  0.58261  0.15336  0.18915  1.0000
  C  Sn20      1.0  0.55815  0.16836  0.12479  1.0000
  O  Te17      1.0  0.54802  0.22689  0.06597  1.0000
  O  Te18      1.0  0.67214  0.25056  0.33134  1.0000
  O  Te19      1.0  0.64449  0.16454  0.32184  1.0000
  O  Te20      1.0  0.52035  0.14089  0.05640  1.0000
  Mg  Mg9       1.0  0.69369  0.21429  0.40216  1.0000
  Mg  Mg10      1.0  0.50043  0.17202  0.98548  1.0000
  C  Sn21      1.0  0.80694  0.42585  0.34768  1.0000
  C   C95       1.0  0.83629  0.41977  0.27421  1.0000
  C  Sn22      1.0  0.82520  0.39502  0.14574  1.0000
  C  Sn23      1.0  0.78393  0.37599  0.08944  1.0000
  C   C96       1.0  0.75461  0.38209  0.16287  1.0000
  C  Sn24      1.0  0.76567  0.40682  0.29138  1.0000
  O  Te21      1.0  0.81871  0.45072  0.47593  1.0000
  O  Te22      1.0  0.85508  0.38938  0.07426  1.0000
  O  Te23      1.0  0.77381  0.34601  0.96108  1.0000
  O  Te24      1.0  0.73582  0.41247  0.36282  1.0000
  Mg  Mg11      1.0  0.82563  0.34768  0.90320  1.0000
  Mg  Mg12      1.0  0.76688  0.44908  0.53384  1.0000
  C  Sn25      1.0  0.38402  0.56821  0.93457  1.0000
  C   C97       1.0  0.42053  0.58125  0.85327  1.0000
  C  Sn26      1.0  0.44312  0.62176  0.79643  1.0000
  C  Sn27      1.0  0.42893  0.64983  0.82144  1.0000
  C   C98       1.0  0.39244  0.63678  0.90271  1.0000
  C  Sn28      1.0  0.36983  0.59628  0.95958  1.0000
  O  Te25      1.0  0.36193  0.52757  0.99036  1.0000
  O  Te26      1.0  0.47952  0.63408  0.71545  1.0000
  O  Te27      1.0  0.45105  0.69050  0.76556  1.0000
  O  Te28      1.0  0.33181  0.58906  0.04053  1.0000
  Mg  Mg13      1.0  0.49880  0.69264  0.66222  1.0000
  Mg  Mg14      1.0  0.31253  0.53052  0.09388  1.0000
  C  Sn29      1.0  0.36552  0.78629  0.75014  1.0000
  C   C99       1.0  0.37781  0.76200  0.83385  1.0000
  C  Sn30      1.0  0.40703  0.77920  0.95120  1.0000
  C  Sn31      1.0  0.42431  0.82155  0.98568  1.0000
  C   C100      1.0  0.41201  0.84581  0.90202  1.0000
  C  Sn32      1.0  0.38280  0.82864  0.78462  1.0000
  O  Te29      1.0  0.33626  0.76846  0.63332  1.0000
  O  Te30      1.0  0.41720  0.75940  0.03326  1.0000
  O  Te31      1.0  0.45195  0.84448  0.10261  1.0000
  O  Te32      1.0  0.37098  0.85352  0.70261  1.0000
  Mg  Mg15      1.0  0.45810  0.79791  0.18192  1.0000
  Mg  Mg16      1.0  0.33008  0.81504  0.55399  1.0000
  C  Sn33      1.0  0.19384  0.55333  0.83121  1.0000
  C   C101      1.0  0.16409  0.56054  0.89498  1.0000
  C  Sn34      1.0  0.17526  0.59959  0.94885  1.0000
  C  Sn35      1.0  0.21704  0.63212  0.93870  1.0000
  C   C102      1.0  0.24676  0.62490  0.87494  1.0000
  C  Sn36      1.0  0.23561  0.58585  0.82106  1.0000
  O  Te33      1.0  0.18197  0.51405  0.77807  1.0000
  O  Te34      1.0  0.14333  0.61116  0.01219  1.0000
  O  Te35      1.0  0.22888  0.67142  0.99192  1.0000
  O  Te36      1.0  0.26588  0.57939  0.75773  1.0000
  Mg  Mg17      1.0  0.17475  0.67007  0.06871  1.0000
  Mg  Mg18      1.0  0.23449  0.52050  0.70111  1.0000
  C  Sn37      1.0  0.63864  0.42885  0.65111  1.0000
  C   C103      1.0  0.62886  0.39020  0.71220  1.0000
  C  Sn38      1.0  0.58965  0.36384  0.77326  1.0000
  C  Sn39      1.0  0.55958  0.37637  0.77319  1.0000
  C   C104      1.0  0.56937  0.41500  0.71210  1.0000
  C  Sn40      1.0  0.60858  0.44138  0.65103  1.0000
  O  Te37      1.0  0.67804  0.45470  0.59066  1.0000
  O  Te38      1.0  0.58059  0.32535  0.83374  1.0000
  O  Te39      1.0  0.52017  0.35048  0.83371  1.0000
  O  Te40      1.0  0.61763  0.47984  0.59056  1.0000
  Mg  Mg19      1.0  0.52261  0.30106  0.90294  1.0000
  Mg  Mg20      1.0  0.67560  0.50415  0.52126  1.0000
  C  Sn41      1.0  0.57575  0.18678  0.56663  1.0000
  C   C105      1.0  0.58537  0.16230  0.66203  1.0000
  C  Sn42      1.0  0.61348  0.17994  0.78239  1.0000
  C  Sn43      1.0  0.63236  0.22294  0.80802  1.0000
  C   C106      1.0  0.62273  0.24739  0.71268  1.0000
  C  Sn44      1.0  0.59463  0.22978  0.59226  1.0000
  O  Te41      1.0  0.54755  0.16849  0.44700  1.0000
  O  Te42      1.0  0.62262  0.15484  0.87620  1.0000
  O  Te43      1.0  0.66057  0.24121  0.92777  1.0000
  O  Te44      1.0  0.58548  0.25485  0.49850  1.0000
  Mg  Mg21      1.0  0.66134  0.19924  0.02431  1.0000
  Mg  Mg22      1.0  0.54512  0.21558  0.35042  1.0000
  C  Sn45      1.0  0.81002  0.42691  0.83611  1.0000
  C   C107      1.0  0.83817  0.41900  0.76291  1.0000
  C  Sn46      1.0  0.82579  0.39348  0.63635  1.0000
  C  Sn47      1.0  0.78443  0.37551  0.58174  1.0000
  C   C108      1.0  0.75630  0.38343  0.65490  1.0000
  C  Sn48      1.0  0.76865  0.40894  0.78150  1.0000
  O  Te45      1.0  0.82306  0.45252  0.96243  1.0000
  O  Te46      1.0  0.85449  0.38602  0.56510  1.0000
  O  Te47      1.0  0.77139  0.34988  0.45532  1.0000
  O  Te48      1.0  0.73998  0.41641  0.85271  1.0000
  Mg  Mg23      1.0  0.82190  0.34901  0.39697  1.0000
  Mg  Mg24      1.0  0.77091  0.45853  0.02080  1.0000
