data_image0
_chemical_formula_structural       H72C84N12O12SnCSn2CSnTe4Mg2SnCSn2CSnTe4Mg2SnCSn2CSnTe4Mg2SnCSn2CSnTe4Mg2SnCSn2CSnTe4Mg2SnCSn2CSnTe4Mg2SnCSn2CSnTe4Mg2SnCSn2CSnTe4Mg2SnCSn2CSnTe4Mg2SnCSn2CSnTe4Mg2SnCSn2CSnTe4Mg2SnCSn2CSnTe4Mg2
_chemical_formula_sum              "H72 C108 N12 O12 Sn48 Te48 Mg24"
_cell_length_a       37.1967
_cell_length_b       37.1682
_cell_length_c       8.17291
_cell_angle_alpha    91.4083
_cell_angle_beta     90.0411
_cell_angle_gamma    119.959

_symmetry_space_group_name_H-M    'P1'
_space_group_IT_number       1

loop_
  _space_group_symop_operation_xyz
  'x, y, z'

loop_
  _atom_site_type_symbol
  _atom_site_label
  _atom_site_symmetry_multiplicity
  _atom_site_fract_x
  _atom_site_fract_y
  _atom_site_fract_z
  _atom_site_occupancy
  H   H1        1.0  0.30563  0.59165  0.37677  1.0000
  H   H2        1.0  0.41319  0.71336  0.36756  1.0000
  H   H3        1.0  0.29113  0.69918  0.36342  1.0000
  H   H4        1.0  0.42453  0.52014  0.29287  1.0000
  H   H5        1.0  0.46937  0.90058  0.17575  1.0000
  H   H6        1.0  0.09931  0.57563  0.32748  1.0000
  H   H7        1.0  0.43226  0.46523  0.29298  1.0000
  H   H8        1.0  0.52716  0.96404  0.18102  1.0000
  H   H9        1.0  0.03578  0.56628  0.32387  1.0000
  H   H10       1.0  0.47327  0.42872  0.28578  1.0000
  H   H11       1.0  0.56407  0.04164  0.20094  1.0000
  H   H12       1.0  0.95847  0.52345  0.30690  1.0000
  H   H13       1.0  0.70293  0.40974  0.27066  1.0000
  H   H14       1.0  0.59209  0.29014  0.27013  1.0000
  H   H15       1.0  0.71155  0.29856  0.26460  1.0000
  H   H16       1.0  0.59079  0.48621  0.28737  1.0000
  H   H17       1.0  0.51047  0.10307  0.29221  1.0000
  H   H18       1.0  0.90049  0.40645  0.26358  1.0000
  H   H19       1.0  0.51519  0.59474  0.07366  1.0000
  H   H20       1.0  0.39415  0.92142  0.04907  1.0000
  H   H21       1.0  0.05819  0.43160  0.03008  1.0000
  H   H22       1.0  0.56769  0.63559  0.08759  1.0000
  H   H23       1.0  0.35102  0.92711  0.11144  1.0000
  H   H24       1.0  0.10236  0.45683  0.16846  1.0000
  H   H25       1.0  0.53010  0.63298  0.23537  1.0000
  H   H26       1.0  0.36479  0.89416  0.22270  1.0000
  H   H27       1.0  0.08395  0.48639  0.06611  1.0000
  H   H28       1.0  0.61505  0.60745  0.37395  1.0000
  H   H29       1.0  0.38437  0.02542  0.35036  1.0000
  H   H30       1.0  0.95149  0.34798  0.29970  1.0000
  H   H31       1.0  0.65197  0.59043  0.33730  1.0000
  H   H32       1.0  0.42532  0.05905  0.49261  1.0000
  H   H33       1.0  0.95173  0.38120  0.46398  1.0000
  H   H34       1.0  0.61349  0.56661  0.49216  1.0000
  H   H35       1.0  0.40895  0.00508  0.47648  1.0000
  H   H36       1.0  0.99984  0.39006  0.37800  1.0000
  H   H37       1.0  0.30119  0.59167  0.87643  1.0000
  H   H38       1.0  0.40890  0.71342  0.86491  1.0000
  H   H39       1.0  0.28719  0.69968  0.87054  1.0000
  H   H40       1.0  0.42504  0.52331  0.82302  1.0000
  H   H41       1.0  0.47510  0.90352  0.74570  1.0000
  H   H42       1.0  0.09545  0.57274  0.76528  1.0000
  H   H43       1.0  0.43413  0.46917  0.80755  1.0000
  H   H44       1.0  0.52983  0.96645  0.73295  1.0000
  H   H45       1.0  0.03358  0.56459  0.77085  1.0000
  H   H46       1.0  0.47715  0.43469  0.79191  1.0000
  H   H47       1.0  0.56501  0.04401  0.73413  1.0000
  H   H48       1.0  0.95616  0.52319  0.76921  1.0000
  H   H49       1.0  0.70042  0.41106  0.77454  1.0000
  H   H50       1.0  0.58907  0.29169  0.77081  1.0000
  H   H51       1.0  0.70833  0.29962  0.76886  1.0000
  H   H52       1.0  0.59387  0.49308  0.79111  1.0000
  H   H53       1.0  0.50945  0.10445  0.79141  1.0000
  H   H54       1.0  0.89574  0.40621  0.77444  1.0000
  H   H55       1.0  0.56883  0.61879  0.55324  1.0000
  H   H56       1.0  0.40002  0.92390  0.55161  1.0000
  H   H57       1.0  0.07664  0.47378  0.53881  1.0000
  H   H58       1.0  0.55319  0.64843  0.68223  1.0000
  H   H59       1.0  0.35654  0.93080  0.59066  1.0000
  H   H60       1.0  0.07205  0.42545  0.59355  1.0000
  H   H61       1.0  0.51521  0.59995  0.59136  1.0000
  H   H62       1.0  0.36461  0.89470  0.70778  1.0000
  H   H63       1.0  0.10453  0.47215  0.71439  1.0000
  H   H64       1.0  0.62171  0.62061  0.84057  1.0000
  H   H65       1.0  0.40400  0.05855  0.88616  1.0000
  H   H66       1.0  0.99209  0.37402  0.79547  1.0000
  H   H67       1.0  0.65262  0.59647  0.87497  1.0000
  H   H68       1.0  0.42133  0.03256  0.01919  1.0000
  H   H69       1.0  0.93772  0.34587  0.84098  1.0000
  H   H70       1.0  0.60987  0.58533  0.00547  1.0000
  H   H71       1.0  0.38320  0.00347  0.86166  1.0000
  H   H72       1.0  0.97246  0.38908  0.96970  1.0000
  C   C1        1.0  0.29289  0.64223  0.37200  1.0000
  C   C2        1.0  0.36238  0.65044  0.37348  1.0000
  C   C3        1.0  0.35427  0.71176  0.36624  1.0000
  C   C4        1.0  0.31908  0.62519  0.37473  1.0000
  C   C5        1.0  0.37961  0.69369  0.36983  1.0000
  C   C6        1.0  0.31105  0.68556  0.36764  1.0000
  C   C7        1.0  0.45761  0.54351  0.30974  1.0000
  C   C8        1.0  0.45076  0.91152  0.24223  1.0000
  C   C9        1.0  0.09048  0.54258  0.31787  1.0000
  C   C10       1.0  0.48527  0.52686  0.28759  1.0000
  C   C11       1.0  0.46689  0.95601  0.23294  1.0000
  C   C12       1.0  0.04616  0.51447  0.29444  1.0000
  C   C13       1.0  0.46598  0.48286  0.28668  1.0000
  C   C14       1.0  0.51013  0.98030  0.20603  1.0000
  C   C15       1.0  0.02066  0.53274  0.30473  1.0000
  C   C16       1.0  0.48831  0.46239  0.28284  1.0000
  C   C17       1.0  0.53077  0.02307  0.21764  1.0000
  C   C18       1.0  0.97792  0.50938  0.29560  1.0000
  C   C19       1.0  0.71259  0.35713  0.26772  1.0000
  C   C20       1.0  0.64444  0.35226  0.27150  1.0000
  C   C21       1.0  0.64934  0.28891  0.26712  1.0000
  C   C22       1.0  0.68795  0.37602  0.27036  1.0000
  C   C23       1.0  0.62575  0.30883  0.26983  1.0000
  C   C24       1.0  0.69279  0.31353  0.26650  1.0000
  C   C25       1.0  0.55711  0.46533  0.28001  1.0000
  C   C26       1.0  0.53005  0.08922  0.26860  1.0000
  C   C27       1.0  0.91308  0.44016  0.26895  1.0000
  C   C28       1.0  0.53203  0.48541  0.27824  1.0000
  C   C29       1.0  0.50879  0.04404  0.25370  1.0000
  C   C30       1.0  0.95816  0.46587  0.27498  1.0000
  C   C31       1.0  0.55193  0.52907  0.27140  1.0000
  C   C32       1.0  0.46529  0.02065  0.26989  1.0000
  C   C33       1.0  0.98289  0.44699  0.26162  1.0000
  C   C34       1.0  0.52914  0.55022  0.27286  1.0000
  C   C35       1.0  0.44396  0.97675  0.25595  1.0000
  C   C36       1.0  0.02655  0.47072  0.26921  1.0000
  C   C37       1.0  0.54025  0.61529  0.15828  1.0000
  C   C38       1.0  0.37651  0.92279  0.15417  1.0000
  C   C39       1.0  0.07462  0.45663  0.12225  1.0000
  C   C40       1.0  0.61998  0.58073  0.37144  1.0000
  C   C41       1.0  0.41372  0.03202  0.40830  1.0000
  C   C42       1.0  0.96714  0.37970  0.35170  1.0000
  C   C43       1.0  0.28876  0.64244  0.87288  1.0000
  C   C44       1.0  0.35816  0.65036  0.87230  1.0000
  C   C45       1.0  0.35022  0.71186  0.86922  1.0000
  C   C46       1.0  0.31485  0.62524  0.87472  1.0000
  C   C47       1.0  0.37536  0.69362  0.86903  1.0000
  C   C48       1.0  0.30695  0.68583  0.87133  1.0000
  C   C49       1.0  0.45800  0.54761  0.81941  1.0000
  C   C50       1.0  0.45248  0.91325  0.77877  1.0000
  C   C51       1.0  0.08667  0.54022  0.78607  1.0000
  C   C52       1.0  0.48618  0.53141  0.80079  1.0000
  C   C53       1.0  0.46829  0.95747  0.76207  1.0000
  C   C54       1.0  0.04243  0.51157  0.76711  1.0000
  C   C55       1.0  0.46777  0.48761  0.79945  1.0000
  C   C56       1.0  0.51185  0.98218  0.74413  1.0000
  C   C57       1.0  0.01764  0.53079  0.76707  1.0000
  C   C58       1.0  0.49122  0.46830  0.79184  1.0000
  C   C59       1.0  0.53158  0.02494  0.74594  1.0000
  C   C60       1.0  0.97495  0.50828  0.76701  1.0000
  C   C61       1.0  0.70969  0.35826  0.77206  1.0000
  C   C62       1.0  0.64177  0.35380  0.77213  1.0000
  C   C63       1.0  0.64626  0.29026  0.76984  1.0000
  C   C64       1.0  0.68529  0.37732  0.77336  1.0000
  C   C65       1.0  0.62276  0.31031  0.77096  1.0000
  C   C66       1.0  0.68971  0.31472  0.77042  1.0000
  C   C67       1.0  0.56015  0.47236  0.78434  1.0000
  C   C68       1.0  0.52931  0.09068  0.77362  1.0000
  C   C69       1.0  0.90926  0.43996  0.76958  1.0000
  C   C70       1.0  0.53481  0.49217  0.78675  1.0000
  C   C71       1.0  0.50861  0.04544  0.76683  1.0000
  C   C72       1.0  0.95439  0.46453  0.76585  1.0000
  C   C73       1.0  0.55398  0.53602  0.78656  1.0000
  C   C74       1.0  0.46490  0.02162  0.77761  1.0000
  C   C75       1.0  0.97808  0.44441  0.75971  1.0000
  C   C76       1.0  0.53004  0.55577  0.79029  1.0000
  C   C77       1.0  0.44447  0.97771  0.76924  1.0000
  C   C78       1.0  0.02202  0.46744  0.75645  1.0000
  C   C79       1.0  0.54653  0.61717  0.64474  1.0000
  C   C80       1.0  0.37956  0.92454  0.64678  1.0000
  C   C81       1.0  0.07592  0.45500  0.64122  1.0000
  C   C82       1.0  0.62140  0.59254  0.88017  1.0000
  C   C83       1.0  0.41082  0.03318  0.89431  1.0000
  C   C84       1.0  0.96592  0.37649  0.84346  1.0000
  N   N1        1.0  0.46928  0.58155  0.35295  1.0000
  N   N2        1.0  0.41908  0.88704  0.32853  1.0000
  N   N3        1.0  0.11796  0.53118  0.33343  1.0000
  N   N4        1.0  0.54075  0.42534  0.27623  1.0000
  N   N5        1.0  0.56993  0.11169  0.25643  1.0000
  N   N6        1.0  0.88961  0.45666  0.27410  1.0000
  N   N7        1.0  0.46919  0.58651  0.83705  1.0000
  N   N8        1.0  0.41643  0.88730  0.83600  1.0000
  N   N9        1.0  0.11390  0.53047  0.83271  1.0000
  N   N10       1.0  0.54328  0.43234  0.77799  1.0000
  N   N11       1.0  0.56922  0.11328  0.76247  1.0000
  N   N12       1.0  0.88646  0.45724  0.77074  1.0000
  O   O1        1.0  0.55281  0.59227  0.26194  1.0000
  O   O2        1.0  0.40171  0.95820  0.26163  1.0000
  O   O3        1.0  0.04746  0.44913  0.26044  1.0000
  O   O4        1.0  0.59418  0.55038  0.24622  1.0000
  O   O5        1.0  0.44398  0.04200  0.27998  1.0000
  O   O6        1.0  0.96329  0.40486  0.22765  1.0000
  O   O7        1.0  0.55095  0.59837  0.79112  1.0000
  O   O8        1.0  0.40199  0.95771  0.76782  1.0000
  O   O9        1.0  0.04034  0.44358  0.74453  1.0000
  O   O10       1.0  0.59636  0.55771  0.76887  1.0000
  O   O11       1.0  0.44381  0.04325  0.77825  1.0000
  O   O12       1.0  0.95635  0.40183  0.73947  1.0000
  C  Sn1       1.0  0.37485  0.58176  0.30941  1.0000
  C   C85       1.0  0.38198  0.61790  0.39425  1.0000
  C  Sn2       1.0  0.42164  0.64635  0.45432  1.0000
  C  Sn3       1.0  0.45488  0.63855  0.42898  1.0000
  C   C86       1.0  0.44775  0.60244  0.34416  1.0000
  C  Sn4       1.0  0.40809  0.57396  0.28407  1.0000
  O  Te1       1.0  0.33495  0.55375  0.25043  1.0000
  O  Te2       1.0  0.42800  0.68225  0.53882  1.0000
  O  Te3       1.0  0.49481  0.66661  0.48805  1.0000
  O  Te4       1.0  0.40173  0.53809  0.19960  1.0000
  Mg  Mg1       1.0  0.48792  0.71105  0.59556  1.0000
  Mg  Mg2       1.0  0.34183  0.50928  0.14274  1.0000
  C  Sn5       1.0  0.41981  0.81436  0.22544  1.0000
  C   C87       1.0  0.40479  0.83920  0.29218  1.0000
  C  Sn6       1.0  0.37411  0.82370  0.41109  1.0000
  C  Sn7       1.0  0.35812  0.78251  0.46449  1.0000
  C   C88       1.0  0.37315  0.75770  0.39778  1.0000
  C  Sn8       1.0  0.40382  0.77317  0.27884  1.0000
  O  Te5       1.0  0.45050  0.83051  0.10671  1.0000
  O  Te6       1.0  0.35958  0.84912  0.47597  1.0000
  O  Te7       1.0  0.32742  0.76638  0.58331  1.0000
  O  Te8       1.0  0.41836  0.74778  0.21399  1.0000
  Mg  Mg3       1.0  0.31760  0.81305  0.63489  1.0000
  Mg  Mg4       1.0  0.46035  0.78382  0.05513  1.0000
  C  Sn9       1.0  0.19339  0.55860  0.48242  1.0000
  C   C89       1.0  0.16418  0.56385  0.39444  1.0000
  C  Sn10      1.0  0.17698  0.59422  0.27629  1.0000
  C  Sn11      1.0  0.21987  0.61988  0.24534  1.0000
  C   C90       1.0  0.24906  0.61463  0.33326  1.0000
  C  Sn12      1.0  0.23629  0.58426  0.45146  1.0000
  O  Te9       1.0  0.17990  0.52804  0.59997  1.0000
  O  Te10      1.0  0.14720  0.59889  0.18994  1.0000
  O  Te11      1.0  0.23335  0.65046  0.12768  1.0000
  O  Te12      1.0  0.26604  0.57958  0.53776  1.0000
  Mg  Mg5       1.0  0.18096  0.64486  0.04194  1.0000
  Mg  Mg6       1.0  0.23232  0.53362  0.68572  1.0000
  C  Sn13      1.0  0.63305  0.42179  0.22559  1.0000
  C   C91       1.0  0.62517  0.38484  0.29728  1.0000
  C  Sn14      1.0  0.58524  0.35643  0.34837  1.0000
  C  Sn15      1.0  0.55250  0.36511  0.32728  1.0000
  C   C92       1.0  0.56039  0.40203  0.25560  1.0000
  C  Sn16      1.0  0.60031  0.43047  0.20450  1.0000
  O  Te13      1.0  0.67320  0.44975  0.17541  1.0000
  O  Te14      1.0  0.57812  0.31970  0.41977  1.0000
  O  Te15      1.0  0.51233  0.33711  0.37753  1.0000
  O  Te16      1.0  0.60743  0.46718  0.13311  1.0000
  Mg  Mg7       1.0  0.51813  0.29135  0.46822  1.0000
  Mg  Mg8       1.0  0.66740  0.49554  0.08454  1.0000
  C  Sn17      1.0  0.57822  0.18470  0.13379  1.0000
  C   C93       1.0  0.59035  0.15943  0.21258  1.0000
  C  Sn18      1.0  0.62073  0.17598  0.33628  1.0000
  C  Sn19      1.0  0.63937  0.21867  0.38227  1.0000
  C   C94       1.0  0.62723  0.24392  0.30352  1.0000
  C  Sn20      1.0  0.59685  0.22739  0.17978  1.0000
  O  Te17      1.0  0.54778  0.16749  0.01046  1.0000
  O  Te18      1.0  0.63236  0.15010  0.41324  1.0000
  O  Te19      1.0  0.66983  0.23587  0.50570  1.0000
  O  Te20      1.0  0.58522  0.25324  0.10286  1.0000
  Mg  Mg9       1.0  0.67518  0.18803  0.57427  1.0000
  Mg  Mg10      1.0  0.54619  0.22265  0.94188  1.0000
  C  Sn21      1.0  0.81415  0.43609  0.39686  1.0000
  C   C95       1.0  0.84196  0.42823  0.30985  1.0000
  C  Sn22      1.0  0.82775  0.39838  0.18247  1.0000
  C  Sn23      1.0  0.78486  0.37592  0.14110  1.0000
  C   C96       1.0  0.75708  0.38379  0.22806  1.0000
  C  Sn24      1.0  0.77126  0.41363  0.35550  1.0000
  O  Te21      1.0  0.82905  0.46608  0.52375  1.0000
  O  Te22      1.0  0.85614  0.39106  0.09728  1.0000
  O  Te23      1.0  0.76998  0.34592  0.01410  1.0000
  O  Te24      1.0  0.74290  0.42096  0.44063  1.0000
  Mg  Mg11      1.0  0.82458  0.35443  0.93414  1.0000
  Mg  Mg12      1.0  0.77823  0.46490  0.60373  1.0000
  C  Sn25      1.0  0.39730  0.58555  0.72892  1.0000
  C   C97       1.0  0.43631  0.60087  0.80303  1.0000
  C  Sn26      1.0  0.44929  0.63074  0.93007  1.0000
  C  Sn27      1.0  0.42272  0.64560  0.98424  1.0000
  C   C98       1.0  0.38373  0.63028  0.91016  1.0000
  C  Sn28      1.0  0.37073  0.60040  0.78309  1.0000
  O  Te25      1.0  0.38496  0.55569  0.60213  1.0000
  O  Te26      1.0  0.48463  0.63830  0.00223  1.0000
  O  Te27      1.0  0.43128  0.66818  0.11113  1.0000
  O  Te28      1.0  0.33161  0.58554  0.71097  1.0000
  Mg  Mg13      1.0  0.48743  0.67885  0.17071  1.0000
  Mg  Mg14      1.0  0.32877  0.54498  0.54254  1.0000
  C  Sn29      1.0  0.34520  0.78523  0.91720  1.0000
  C   C99       1.0  0.35883  0.76004  0.84245  1.0000
  C  Sn30      1.0  0.39820  0.77771  0.77362  1.0000
  C  Sn31      1.0  0.42452  0.82147  0.77973  1.0000
  C   C100      1.0  0.41089  0.84663  0.85447  1.0000
  C  Sn32      1.0  0.37152  0.82899  0.92330  1.0000
  O  Te29      1.0  0.30572  0.76690  0.98522  1.0000
  O  Te30      1.0  0.41113  0.75189  0.69950  1.0000
  O  Te31      1.0  0.46402  0.83979  0.71163  1.0000
  O  Te32      1.0  0.35859  0.85478  0.99741  1.0000
  Mg  Mg15      1.0  0.46762  0.79156  0.62420  1.0000
  Mg  Mg16      1.0  0.29832  0.80784  0.07282  1.0000
  C  Sn33      1.0  0.18914  0.55927  0.98212  1.0000
  C   C101      1.0  0.16008  0.56405  0.89085  1.0000
  C  Sn34      1.0  0.17309  0.59377  0.76995  1.0000
  C  Sn35      1.0  0.21604  0.61923  0.73955  1.0000
  C   C102      1.0  0.24507  0.61445  0.83077  1.0000
  C  Sn36      1.0  0.23208  0.58474  0.95173  1.0000
  O  Te33      1.0  0.17162  0.52206  0.10238  1.0000
  O  Te34      1.0  0.14346  0.59798  0.68033  1.0000
  O  Te35      1.0  0.22973  0.64916  0.61918  1.0000
  O  Te36      1.0  0.25788  0.57322  0.04130  1.0000
  Mg  Mg17      1.0  0.17749  0.64311  0.52946  1.0000
  Mg  Mg18      1.0  0.22389  0.52808  0.19212  1.0000
  C  Sn37      1.0  0.56501  0.35222  0.81326  1.0000
  C   C103      1.0  0.60403  0.36573  0.74546  1.0000
  C  Sn38      1.0  0.62810  0.40667  0.69586  1.0000
  C  Sn39      1.0  0.61287  0.43469  0.71449  1.0000
  C   C104      1.0  0.57387  0.42118  0.78228  1.0000
  C  Sn40      1.0  0.54977  0.38024  0.83190  1.0000
  O  Te37      1.0  0.54148  0.31116  0.86201  1.0000
  O  Te38      1.0  0.66702  0.41945  0.62836  1.0000
  O  Te39      1.0  0.63643  0.47578  0.66567  1.0000
  O  Te40      1.0  0.51088  0.36746  0.89939  1.0000
  Mg  Mg19      1.0  0.68750  0.47848  0.58049  1.0000
  Mg  Mg20      1.0  0.49039  0.30845  0.94737  1.0000
  C  Sn41      1.0  0.62494  0.18982  0.89120  1.0000
  C   C105      1.0  0.58892  0.16112  0.80591  1.0000
  C  Sn42      1.0  0.57224  0.17420  0.68321  1.0000
  C  Sn43      1.0  0.59198  0.21684  0.64487  1.0000
  C   C106      1.0  0.62797  0.24550  0.73011  1.0000
  C  Sn44      1.0  0.64467  0.23246  0.85286  1.0000
  O  Te41      1.0  0.63727  0.16875  0.01340  1.0000
  O  Te42      1.0  0.53620  0.14493  0.59967  1.0000
  O  Te43      1.0  0.57581  0.23059  0.52257  1.0000
  O  Te44      1.0  0.68070  0.26169  0.93636  1.0000
  Mg  Mg21      1.0  0.52613  0.17890  0.44320  1.0000
  Mg  Mg22      1.0  0.68700  0.22046  0.09278  1.0000
  C  Sn45      1.0  0.78904  0.36670  0.71625  1.0000
  C   C107      1.0  0.76124  0.37622  0.79393  1.0000
  C  Sn46      1.0  0.77433  0.41671  0.85082  1.0000
  C  Sn47      1.0  0.81608  0.44835  0.82955  1.0000
  C   C108      1.0  0.84386  0.43883  0.75188  1.0000
  C  Sn48      1.0  0.83079  0.39835  0.69497  1.0000
  O  Te45      1.0  0.77527  0.32601  0.66034  1.0000
  O  Te46      1.0  0.74597  0.42547  0.92815  1.0000
  O  Te47      1.0  0.82984  0.48907  0.88554  1.0000
  O  Te48      1.0  0.85912  0.38959  0.61766  1.0000
  Mg  Mg23      1.0  0.77956  0.48561  0.98311  1.0000
  Mg  Mg24      1.0  0.82557  0.32946  0.56259  1.0000
