data_image0
_chemical_formula_structural       H32C26N6C2Sn2C2HTe2HMgC2Sn2C2HTe2HMgC2Sn2C2HTe2HMgC2Sn2C2HTe2HMgC2Sn2C2HTe2HMgC2Sn2C2HTe2HMgC2Sn2C2HTe2HMgC2Sn2C2HTe2HMgC2Sn2C2HTe2HMgC2Sn2C2HTe2HMgC2Sn2C2HTe2HMgC2Sn2C2HTe2HMg
_chemical_formula_sum              "H56 C74 N6 Sn24 Te24 Mg12"
_cell_length_a       25.4368
_cell_length_b       18.8915
_cell_length_c       10.4803
_cell_angle_alpha    81.8511
_cell_angle_beta     83.0476
_cell_angle_gamma    111.201

_symmetry_space_group_name_H-M    'P1'
_space_group_IT_number       1

loop_
  _space_group_symop_operation_xyz
  'x, y, z'

loop_
  _atom_site_type_symbol
  _atom_site_label
  _atom_site_symmetry_multiplicity
  _atom_site_fract_x
  _atom_site_fract_y
  _atom_site_fract_z
  _atom_site_occupancy
  H   H1        1.0  0.24063  0.16221  0.42079  1.0000
  H   H2        1.0  0.76030  0.88110  0.58262  1.0000
  H   H3        1.0  0.75792  0.37088  0.13855  1.0000
  H   H4        1.0  0.23796  0.58632  0.85574  1.0000
  H   H5        1.0  0.60740  0.36293  0.80387  1.0000
  H   H6        1.0  0.39694  0.64684  0.18810  1.0000
  H   H7        1.0  0.56608  0.26845  0.78562  1.0000
  H   H8        1.0  0.44024  0.73977  0.20928  1.0000
  H   H9        1.0  0.50508  0.24889  0.60668  1.0000
  H   H10       1.0  0.49755  0.75596  0.39001  1.0000
  H   H11       1.0  0.50566  0.33073  0.49862  1.0000
  H   H12       1.0  0.49562  0.67392  0.49989  1.0000
  H   H13       1.0  0.53458  0.24346  0.27294  1.0000
  H   H14       1.0  0.45242  0.74068  0.77013  1.0000
  H   H15       1.0  0.39326  0.52651  0.34797  1.0000
  H   H16       1.0  0.60733  0.47914  0.65010  1.0000
  H   H17       1.0  0.43434  0.53805  0.47321  1.0000
  H   H18       1.0  0.56570  0.46730  0.52554  1.0000
  H   H19       1.0  0.58078  0.72782  0.09388  1.0000
  H   H20       1.0  0.42333  0.27329  0.90698  1.0000
  H   H21       1.0  0.54754  0.78717  0.15355  1.0000
  H   H22       1.0  0.45802  0.21699  0.84173  1.0000
  H   H23       1.0  0.54342  0.58582  0.41545  1.0000
  H   H24       1.0  0.45798  0.41620  0.58316  1.0000
  H   H25       1.0  0.57745  0.60888  0.24906  1.0000
  H   H26       1.0  0.42291  0.39332  0.74852  1.0000
  H   H27       1.0  0.44309  0.55747  0.10778  1.0000
  H   H28       1.0  0.55753  0.44753  0.89233  1.0000
  H   H29       1.0  0.51838  0.59028  0.06716  1.0000
  H   H30       1.0  0.48196  0.41035  0.93225  1.0000
  H   H31       1.0  0.48728  0.70079  0.02320  1.0000
  H   H32       1.0  0.51768  0.30427  0.97338  1.0000
  C   C1        1.0  0.79018  0.88880  0.49168  1.0000
  C   C2        1.0  0.21159  0.12823  0.51370  1.0000
  C   C3        1.0  0.49957  0.22143  0.21868  1.0000
  C   C4        1.0  0.49415  0.77385  0.79438  1.0000
  C   C5        1.0  0.20854  0.59601  0.79274  1.0000
  C   C6        1.0  0.78970  0.38483  0.20324  1.0000
  C   C7        1.0  0.43748  0.67980  0.21683  1.0000
  C   C8        1.0  0.56681  0.32745  0.77806  1.0000
  C   C9        1.0  0.43730  0.64626  0.36098  1.0000
  C   C10       1.0  0.56482  0.35958  0.63480  1.0000
  C   C11       1.0  0.49449  0.69585  0.39759  1.0000
  C   C12       1.0  0.50757  0.30870  0.60022  1.0000
  C   C13       1.0  0.43431  0.56202  0.37123  1.0000
  C   C14       1.0  0.56651  0.44297  0.62675  1.0000
  C   C15       1.0  0.54624  0.69450  0.30483  1.0000
  C   C16       1.0  0.45597  0.30858  0.69492  1.0000
  C   C17       1.0  0.54397  0.72681  0.16187  1.0000
  C   C18       1.0  0.46012  0.27653  0.83630  1.0000
  C   C19       1.0  0.54072  0.60918  0.31521  1.0000
  C   C20       1.0  0.46024  0.39335  0.68410  1.0000
  C   C21       1.0  0.48319  0.59321  0.13551  1.0000
  C   C22       1.0  0.51824  0.41022  0.86362  1.0000
  C   C23       1.0  0.48453  0.55817  0.27792  1.0000
  C   C24       1.0  0.51620  0.44511  0.72172  1.0000
  C   C25       1.0  0.48785  0.67722  0.12463  1.0000
  C   C26       1.0  0.51606  0.32747  0.87251  1.0000
  N   N1        1.0  0.77397  0.86615  0.38722  1.0000
  N   N2        1.0  0.22860  0.12769  0.62468  1.0000
  N   N3        1.0  0.46335  0.25395  0.20289  1.0000
  N   N4        1.0  0.53656  0.75135  0.78353  1.0000
  N   N5        1.0  0.22357  0.61788  0.66706  1.0000
  N   N6        1.0  0.77680  0.38705  0.32511  1.0000
  C   C27       1.0  0.61382  0.95620  0.62602  1.0000
  C   C28       1.0  0.85499  0.93216  0.52290  1.0000
  C  Sn1       1.0  0.88694  0.93207  0.40473  1.0000
  C  Sn2       1.0  0.67885  0.95651  0.38982  1.0000
  C   C29       1.0  0.70586  0.98041  0.49361  1.0000
  C   C30       1.0  0.67348  0.98029  0.61142  1.0000
  H   H33       1.0  0.58877  0.95607  0.71720  1.0000
  O  Te1       1.0  0.85887  0.90790  0.30268  1.0000
  O  Te2       1.0  0.98040  0.95697  0.27279  1.0000
  H   H34       1.0  0.69472  0.99886  0.69127  1.0000
  Mg  Mg1       1.0  0.92244  0.91885  0.16210  1.0000
  C   C31       1.0  0.11931  0.09129  0.37021  1.0000
  C   C32       1.0  0.14738  0.09286  0.47710  1.0000
  C  Sn3       1.0  0.11658  0.05235  0.60221  1.0000
  C  Sn4       1.0  0.05658  0.00951  0.62035  1.0000
  C   C33       1.0  0.02891  0.00826  0.51278  1.0000
  C   C34       1.0  0.06014  0.04902  0.38801  1.0000
  H   H35       1.0  0.14347  0.12279  0.27366  1.0000
  O  Te3       1.0  0.14529  0.05456  0.70793  1.0000
  O  Te4       1.0  0.02476  0.96847  0.74433  1.0000
  H   H36       1.0  0.03840  0.04776  0.30526  1.0000
  Mg  Mg2       1.0  0.08324  0.98927  0.85785  1.0000
  C   C35       1.0  0.69961  0.77017  0.26039  1.0000
  C   C36       1.0  0.71575  0.82187  0.34502  1.0000
  C  Sn5       1.0  0.67401  0.83175  0.43209  1.0000
  C  Sn6       1.0  0.61504  0.78898  0.43426  1.0000
  C   C37       1.0  0.59933  0.73736  0.34926  1.0000
  C   C38       1.0  0.64146  0.72794  0.26251  1.0000
  H   H37       1.0  0.73220  0.76284  0.19331  1.0000
  O  Te5       1.0  0.69089  0.88366  0.51594  1.0000
  O  Te6       1.0  0.57243  0.79771  0.52033  1.0000
  H   H38       1.0  0.62894  0.68787  0.19705  1.0000
  Mg  Mg3       1.0  0.61690  0.87547  0.61555  1.0000
  C   C39       1.0  0.33235  0.24954  0.76000  1.0000
  C   C40       1.0  0.38567  0.25685  0.69346  1.0000
  C  Sn7       1.0  0.38897  0.22020  0.58770  1.0000
  C  Sn8       1.0  0.33786  0.17545  0.54803  1.0000
  C   C41       1.0  0.28473  0.16853  0.61518  1.0000
  C   C42       1.0  0.28192  0.20543  0.72090  1.0000
  H   H39       1.0  0.33018  0.27812  0.84175  1.0000
  O  Te7       1.0  0.44259  0.22809  0.52234  1.0000
  O  Te8       1.0  0.33992  0.13823  0.44263  1.0000
  H   H40       1.0  0.24064  0.19980  0.77234  1.0000
  Mg  Mg4       1.0  0.42317  0.16632  0.38458  1.0000
  C   C43       1.0  0.54311  0.10494  0.17556  1.0000
  C   C44       1.0  0.51086  0.15074  0.16053  1.0000
  C  Sn9       1.0  0.46789  0.13301  0.08504  1.0000
  C  Sn10      1.0  0.45711  0.06817  0.02362  1.0000
  C   C45       1.0  0.48959  0.02268  0.03934  1.0000
  C   C46       1.0  0.53249  0.04096  0.11506  1.0000
  H   H41       1.0  0.57629  0.11905  0.23420  1.0000
  O  Te9       1.0  0.43608  0.17940  0.07100  1.0000
  O  Te10      1.0  0.33274  0.93072  0.94768  1.0000
  H   H42       1.0  0.55744  0.00545  0.12675  1.0000
  Mg  Mg5       1.0  0.30086  0.01154  0.95771  1.0000
  C   C47       1.0  0.16988  0.89946  0.92514  1.0000
  C   C48       1.0  0.21435  0.95062  0.97322  1.0000
  C  Sn11      1.0  0.26929  0.94947  0.95111  1.0000
  C  Sn12      1.0  0.27978  0.89608  0.87947  1.0000
  C   C49       1.0  0.50359  0.84517  0.83170  1.0000
  C   C50       1.0  0.44877  0.84679  0.85443  1.0000
  H   H43       1.0  0.12747  0.90074  0.94265  1.0000
  O  Te11      1.0  0.31323  0.00097  0.99988  1.0000
  O  Te12      1.0  0.60287  0.89372  0.85591  1.0000
  H   H44       1.0  0.41436  0.80721  0.81711  1.0000
  Mg  Mg6       1.0  0.38021  0.97550  0.94238  1.0000
  C   C51       1.0  0.06167  0.56738  0.81460  1.0000
  C   C52       1.0  0.03428  0.51971  0.93739  1.0000
  C  Sn13      1.0  0.14816  0.61981  0.02606  1.0000
  C  Sn14      1.0  0.12722  0.53148  0.99088  1.0000
  C   C53       1.0  0.15420  0.57917  0.86784  1.0000
  C   C54       1.0  0.12157  0.59710  0.77984  1.0000
  H   H45       1.0  0.03642  0.58129  0.74654  1.0000
  O  Te13      1.0  0.12011  0.57208  0.14831  1.0000
  O  Te14      1.0  0.24211  0.63254  0.07764  1.0000
  H   H46       1.0  0.14278  0.63405  0.68482  1.0000
  Mg  Mg7       1.0  0.18408  0.56497  0.23281  1.0000
  C   C55       1.0  0.90783  0.44304  0.22610  1.0000
  C   C56       1.0  0.86037  0.41715  0.16514  1.0000
  C  Sn15      1.0  0.86808  0.41563  0.03143  1.0000
  C  Sn16      1.0  0.84273  0.32208  0.95765  1.0000
  C   C57       1.0  0.97160  0.46623  0.01956  1.0000
  C   C58       1.0  0.96339  0.46754  0.15340  1.0000
  H   H47       1.0  0.90148  0.44401  0.32967  1.0000
  O  Te15      1.0  0.73852  0.27122  0.97207  1.0000
  O  Te16      1.0  0.85166  0.32113  0.82388  1.0000
  H   H48       1.0  0.00015  0.48753  0.20059  1.0000
  Mg  Mg8       1.0  0.77275  0.28074  0.78722  1.0000
  C   C59       1.0  0.34698  0.67594  0.63116  1.0000
  C   C60       1.0  0.29092  0.64240  0.60943  1.0000
  C  Sn17      1.0  0.28007  0.60436  0.50465  1.0000
  C  Sn18      1.0  0.32630  0.59990  0.42025  1.0000
  C   C61       1.0  0.38223  0.63360  0.44287  1.0000
  C   C62       1.0  0.39260  0.67154  0.54799  1.0000
  H   H49       1.0  0.35501  0.70526  0.71253  1.0000
  O  Te17      1.0  0.22381  0.57119  0.48432  1.0000
  O  Te18      1.0  0.31667  0.56221  0.31482  1.0000
  H   H50       1.0  0.43600  0.69746  0.56484  1.0000
  Mg  Mg9       1.0  0.23246  0.52608  0.32744  1.0000
  C   C63       1.0  0.71566  0.42312  0.51886  1.0000
  C   C64       1.0  0.72327  0.38097  0.42382  1.0000
  C  Sn19      1.0  0.67576  0.32977  0.38464  1.0000
  C  Sn20      1.0  0.61964  0.32072  0.44181  1.0000
  C   C65       1.0  0.61249  0.36319  0.53674  1.0000
  C   C66       1.0  0.66032  0.41425  0.57526  1.0000
  H   H51       1.0  0.75267  0.46266  0.54861  1.0000
  O  Te19      1.0  0.68413  0.28809  0.28959  1.0000
  O  Te20      1.0  0.57141  0.26997  0.40442  1.0000
  H   H52       1.0  0.65442  0.44691  0.64878  1.0000
  Mg  Mg10      1.0  0.60491  0.22601  0.27109  1.0000
  C   C67       1.0  0.53373  0.40406  0.23654  1.0000
  C   C68       1.0  0.48485  0.33713  0.24588  1.0000
  C  Sn21      1.0  0.43027  0.33931  0.26972  1.0000
  C  Sn22      1.0  0.42466  0.40991  0.28441  1.0000
  C   C69       1.0  0.47383  0.47657  0.27480  1.0000
  C   C70       1.0  0.52824  0.47373  0.25096  1.0000
  H   H53       1.0  0.57583  0.40188  0.21803  1.0000
  O  Te21      1.0  0.38188  0.27190  0.27881  1.0000
  O  Te22      1.0  0.37063  0.41373  0.30824  1.0000
  H   H54       1.0  0.56608  0.52557  0.24365  1.0000
  Mg  Mg11      1.0  0.31752  0.30635  0.31245  1.0000
  C   C71       1.0  0.46568  0.59393  0.78834  1.0000
  C   C72       1.0  0.51424  0.66237  0.77054  1.0000
  C  Sn23      1.0  0.56828  0.66492  0.71857  1.0000
  C  Sn24      1.0  0.57367  0.59761  0.68384  1.0000
  C   C73       1.0  0.52482  0.52944  0.70195  1.0000
  C   C74       1.0  0.47096  0.52753  0.75407  1.0000
  H   H55       1.0  0.42400  0.59245  0.82860  1.0000
  O  Te23      1.0  0.61635  0.73376  0.70147  1.0000
  O  Te24      1.0  0.62716  0.59856  0.63166  1.0000
  H   H56       1.0  0.43336  0.47454  0.76776  1.0000
  Mg  Mg12      1.0  0.68000  0.70617  0.62687  1.0000
