data_image0
_chemical_formula_structural       H32C26N6SnCSn2CSnTe4Mg2SnCSn2CSnTe4Mg2SnCSn2CSnTe4Mg2SnCSn2CSnTe4Mg2SnCSn2CSnTe4Mg2SnCSn2CSnTe4Mg2SnCSn2CSnTe4Mg2SnCSn2CSnTe4Mg2SnCSn2CSnTe4Mg2SnCSn2CSnTe4Mg2SnCSn2CSnTe4Mg2SnCSn2CSnTe4Mg2
_chemical_formula_sum              "H32 C50 N6 Sn48 Te48 Mg24"
_cell_length_a       25.4368
_cell_length_b       18.8915
_cell_length_c       10.4803
_cell_angle_alpha    81.8511
_cell_angle_beta     83.0476
_cell_angle_gamma    111.201

_symmetry_space_group_name_H-M    'P1'
_space_group_IT_number       1

loop_
  _space_group_symop_operation_xyz
  'x, y, z'

loop_
  _atom_site_type_symbol
  _atom_site_label
  _atom_site_symmetry_multiplicity
  _atom_site_fract_x
  _atom_site_fract_y
  _atom_site_fract_z
  _atom_site_occupancy
  H   H1        1.0  0.24063  0.16221  0.42079  1.0000
  H   H2        1.0  0.76030  0.88110  0.58262  1.0000
  H   H3        1.0  0.75792  0.37088  0.13855  1.0000
  H   H4        1.0  0.23796  0.58632  0.85574  1.0000
  H   H5        1.0  0.60740  0.36293  0.80387  1.0000
  H   H6        1.0  0.39694  0.64684  0.18810  1.0000
  H   H7        1.0  0.56608  0.26845  0.78562  1.0000
  H   H8        1.0  0.44024  0.73977  0.20928  1.0000
  H   H9        1.0  0.50508  0.24889  0.60668  1.0000
  H   H10       1.0  0.49755  0.75596  0.39001  1.0000
  H   H11       1.0  0.50566  0.33073  0.49862  1.0000
  H   H12       1.0  0.49562  0.67392  0.49989  1.0000
  H   H13       1.0  0.53458  0.24346  0.27294  1.0000
  H   H14       1.0  0.45242  0.74068  0.77013  1.0000
  H   H15       1.0  0.39326  0.52651  0.34797  1.0000
  H   H16       1.0  0.60733  0.47914  0.65010  1.0000
  H   H17       1.0  0.43434  0.53805  0.47321  1.0000
  H   H18       1.0  0.56570  0.46730  0.52554  1.0000
  H   H19       1.0  0.58078  0.72782  0.09388  1.0000
  H   H20       1.0  0.42333  0.27329  0.90698  1.0000
  H   H21       1.0  0.54754  0.78717  0.15355  1.0000
  H   H22       1.0  0.45802  0.21699  0.84173  1.0000
  H   H23       1.0  0.54342  0.58582  0.41545  1.0000
  H   H24       1.0  0.45798  0.41620  0.58316  1.0000
  H   H25       1.0  0.57745  0.60888  0.24906  1.0000
  H   H26       1.0  0.42291  0.39332  0.74852  1.0000
  H   H27       1.0  0.44309  0.55747  0.10778  1.0000
  H   H28       1.0  0.55753  0.44753  0.89233  1.0000
  H   H29       1.0  0.51838  0.59028  0.06716  1.0000
  H   H30       1.0  0.48196  0.41035  0.93225  1.0000
  H   H31       1.0  0.48728  0.70079  0.02320  1.0000
  H   H32       1.0  0.51768  0.30427  0.97338  1.0000
  C   C1        1.0  0.79018  0.88880  0.49168  1.0000
  C   C2        1.0  0.21159  0.12823  0.51370  1.0000
  C   C3        1.0  0.49957  0.22143  0.21868  1.0000
  C   C4        1.0  0.49415  0.77385  0.79438  1.0000
  C   C5        1.0  0.20854  0.59601  0.79274  1.0000
  C   C6        1.0  0.78970  0.38483  0.20324  1.0000
  C   C7        1.0  0.43748  0.67980  0.21683  1.0000
  C   C8        1.0  0.56681  0.32745  0.77806  1.0000
  C   C9        1.0  0.43730  0.64626  0.36098  1.0000
  C   C10       1.0  0.56482  0.35958  0.63480  1.0000
  C   C11       1.0  0.49449  0.69585  0.39759  1.0000
  C   C12       1.0  0.50757  0.30870  0.60022  1.0000
  C   C13       1.0  0.43431  0.56202  0.37123  1.0000
  C   C14       1.0  0.56651  0.44297  0.62675  1.0000
  C   C15       1.0  0.54624  0.69450  0.30483  1.0000
  C   C16       1.0  0.45597  0.30858  0.69492  1.0000
  C   C17       1.0  0.54397  0.72681  0.16187  1.0000
  C   C18       1.0  0.46012  0.27653  0.83630  1.0000
  C   C19       1.0  0.54072  0.60918  0.31521  1.0000
  C   C20       1.0  0.46024  0.39335  0.68410  1.0000
  C   C21       1.0  0.48319  0.59321  0.13551  1.0000
  C   C22       1.0  0.51824  0.41022  0.86362  1.0000
  C   C23       1.0  0.48453  0.55817  0.27792  1.0000
  C   C24       1.0  0.51620  0.44511  0.72172  1.0000
  C   C25       1.0  0.48785  0.67722  0.12463  1.0000
  C   C26       1.0  0.51606  0.32747  0.87251  1.0000
  N   N1        1.0  0.77397  0.86615  0.38722  1.0000
  N   N2        1.0  0.22860  0.12769  0.62468  1.0000
  N   N3        1.0  0.46335  0.25395  0.20289  1.0000
  N   N4        1.0  0.53656  0.75135  0.78353  1.0000
  N   N5        1.0  0.22357  0.61788  0.66706  1.0000
  N   N6        1.0  0.77680  0.38705  0.32511  1.0000
  C  Sn1       1.0  0.61451  0.97803  0.60043  1.0000
  C   C27       1.0  0.58782  0.94691  0.50083  1.0000
  C  Sn2       1.0  0.88698  0.92797  0.40038  1.0000
  C  Sn3       1.0  0.94546  0.94034  0.39951  1.0000
  C   C28       1.0  0.70353  0.97143  0.49908  1.0000
  C  Sn4       1.0  0.67298  0.99040  0.59956  1.0000
  O  Te1       1.0  0.58310  0.99654  0.69988  1.0000
  O  Te2       1.0  0.85938  0.89696  0.30185  1.0000
  O  Te3       1.0  0.97685  0.92181  0.29994  1.0000
  O  Te4       1.0  0.70055  0.02138  0.69806  1.0000
  Mg  Mg1       1.0  0.92030  0.88099  0.18751  1.0000
  Mg  Mg2       1.0  0.63966  0.03734  0.81247  1.0000
  C  Sn5       1.0  0.11750  0.11069  0.38879  1.0000
  C   C29       1.0  0.14525  0.10472  0.49464  1.0000
  C  Sn6       1.0  0.11676  0.04809  0.60798  1.0000
  C  Sn7       1.0  0.05936  0.99631  0.61566  1.0000
  C   C30       1.0  0.03165  0.00228  0.50985  1.0000
  C  Sn8       1.0  0.06010  0.05891  0.39647  1.0000
  O  Te5       1.0  0.14681  0.16775  0.27645  1.0000
  O  Te6       1.0  0.14539  0.04327  0.71255  1.0000
  O  Te7       1.0  0.03006  0.93922  0.72813  1.0000
  O  Te8       1.0  0.03151  0.06373  0.29194  1.0000
  Mg  Mg3       1.0  0.08732  0.95576  0.84458  1.0000
  Mg  Mg4       1.0  0.08954  0.15119  0.15985  1.0000
  C  Sn9       1.0  0.69954  0.79278  0.23948  1.0000
  C   C31       1.0  0.71437  0.83792  0.33421  1.0000
  C  Sn10      1.0  0.67310  0.83069  0.44145  1.0000
  C  Sn11      1.0  0.61581  0.77720  0.45433  1.0000
  C   C32       1.0  0.60101  0.73209  0.35966  1.0000
  C  Sn12      1.0  0.64225  0.73929  0.25237  1.0000
  O  Te9       1.0  0.74151  0.80097  0.13308  1.0000
  O  Te10      1.0  0.68895  0.87647  0.53486  1.0000
  O  Te11      1.0  0.57384  0.76905  0.56084  1.0000
  O  Te12      1.0  0.62643  0.69354  0.15901  1.0000
  Mg  Mg5       1.0  0.61642  0.84425  0.66235  1.0000
  Mg  Mg6       1.0  0.69893  0.72568  0.03152  1.0000
  C  Sn13      1.0  0.37936  0.22487  0.53221  1.0000
  C   C33       1.0  0.39476  0.26746  0.62995  1.0000
  C  Sn14      1.0  0.35451  0.25599  0.74203  1.0000
  C  Sn15      1.0  0.29768  0.20075  0.75679  1.0000
  C   C34       1.0  0.28230  0.15818  0.65910  1.0000
  C  Sn16      1.0  0.32253  0.16963  0.54697  1.0000
  O  Te13      1.0  0.42030  0.23729  0.42099  1.0000
  O  Te14      1.0  0.37092  0.29928  0.83839  1.0000
  O  Te15      1.0  0.25673  0.18835  0.86813  1.0000
  O  Te16      1.0  0.30615  0.12636  0.45066  1.0000
  Mg  Mg7       1.0  0.29976  0.26146  0.97221  1.0000
  Mg  Mg8       1.0  0.37728  0.16411  0.31684  1.0000
  C  Sn17      1.0  0.44277  0.09710  0.09603  1.0000
  C   C35       1.0  0.47972  0.13336  0.17648  1.0000
  C  Sn18      1.0  0.53107  0.12265  0.18048  1.0000
  C  Sn19      1.0  0.54583  0.07473  0.10239  1.0000
  C   C36       1.0  0.50891  0.03851  0.02200  1.0000
  C  Sn20      1.0  0.45753  0.04918  0.01795  1.0000
  O  Te17      1.0  0.39165  0.10863  0.09357  1.0000
  O  Te18      1.0  0.56730  0.15949  0.26170  1.0000
  O  Te19      1.0  0.59700  0.06322  0.10492  1.0000
  O  Te20      1.0  0.33964  0.89398  0.93678  1.0000
  Mg  Mg9       1.0  0.63221  0.12587  0.23117  1.0000
  Mg  Mg10      1.0  0.27475  0.92759  0.96717  1.0000
  C  Sn21      1.0  0.44555  0.88014  0.85836  1.0000
  C   C37       1.0  0.49154  0.85925  0.81961  1.0000
  C  Sn22      1.0  0.54218  0.88799  0.86862  1.0000
  C  Sn23      1.0  0.27837  0.93862  0.95830  1.0000
  C   C38       1.0  0.23240  0.95947  0.99703  1.0000
  C  Sn24      1.0  0.18174  0.93077  0.94805  1.0000
  O  Te21      1.0  0.39533  0.85071  0.80813  1.0000
  O  Te22      1.0  0.58758  0.86631  0.82839  1.0000
  O  Te23      1.0  0.41032  0.08645  0.00853  1.0000
  O  Te24      1.0  0.13636  0.95241  0.98825  1.0000
  Mg  Mg11      1.0  0.37859  0.92160  0.92427  1.0000
  Mg  Mg12      1.0  0.07674  0.89712  0.89249  1.0000
  C  Sn25      1.0  0.05939  0.54309  0.80974  1.0000
  C   C39       1.0  0.03368  0.50225  0.93779  1.0000
  C  Sn26      1.0  0.14865  0.62095  0.03453  1.0000
  C  Sn27      1.0  0.20890  0.66298  0.00265  1.0000
  C   C40       1.0  0.15291  0.58540  0.87467  1.0000
  C  Sn28      1.0  0.11964  0.58513  0.77786  1.0000
  O  Te25      1.0  0.02527  0.54200  0.71460  1.0000
  O  Te26      1.0  0.12197  0.57966  0.16184  1.0000
  O  Te27      1.0  0.24302  0.66405  0.09792  1.0000
  O  Te28      1.0  0.14629  0.62640  0.65062  1.0000
  Mg  Mg13      1.0  0.18678  0.59887  0.25732  1.0000
  Mg  Mg14      1.0  0.08153  0.60726  0.55508  1.0000
  C  Sn29      1.0  0.91307  0.45810  0.94920  1.0000
  C   C41       1.0  0.04149  0.60492  0.01147  1.0000
  C  Sn30      1.0  0.03416  0.58829  0.14817  1.0000
  C  Sn31      1.0  0.97898  0.54225  0.22423  1.0000
  C   C42       1.0  0.93229  0.51385  0.16196  1.0000
  C  Sn32      1.0  0.93957  0.53046  0.02526  1.0000
  O  Te29      1.0  0.92139  0.47544  0.81242  1.0000
  O  Te30      1.0  0.08153  0.61738  0.20820  1.0000
  O  Te31      1.0  0.97070  0.52492  0.36111  1.0000
  O  Te32      1.0  0.81056  0.38299  0.96524  1.0000
  Mg  Mg15      1.0  0.04848  0.57783  0.39742  1.0000
  Mg  Mg16      1.0  0.84357  0.42246  0.77603  1.0000
  C  Sn33      1.0  0.34466  0.69407  0.60180  1.0000
  C   C43       1.0  0.28865  0.65328  0.58570  1.0000
  C  Sn34      1.0  0.27795  0.59908  0.50435  1.0000
  C  Sn35      1.0  0.32419  0.58532  0.43777  1.0000
  C   C44       1.0  0.38015  0.62609  0.45390  1.0000
  C  Sn36      1.0  0.39090  0.68031  0.53521  1.0000
  O  Te33      1.0  0.35436  0.74798  0.68361  1.0000
  O  Te34      1.0  0.22159  0.55903  0.48977  1.0000
  O  Te35      1.0  0.31444  0.53136  0.35591  1.0000
  O  Te36      1.0  0.44722  0.72033  0.54982  1.0000
  Mg  Mg17      1.0  0.23019  0.49134  0.36764  1.0000
  Mg  Mg18      1.0  0.43867  0.78801  0.67197  1.0000
  C  Sn37      1.0  0.71436  0.40007  0.54128  1.0000
  C   C45       1.0  0.72080  0.36326  0.43725  1.0000
  C  Sn38      1.0  0.67450  0.32973  0.37641  1.0000
  C  Sn39      1.0  0.62065  0.33310  0.42041  1.0000
  C   C46       1.0  0.61423  0.36990  0.52436  1.0000
  C  Sn40      1.0  0.66050  0.40343  0.58528  1.0000
  O  Te37      1.0  0.76123  0.43320  0.60064  1.0000
  O  Te38      1.0  0.68198  0.29323  0.27262  1.0000
  O  Te39      1.0  0.57377  0.29993  0.36095  1.0000
  O  Te40      1.0  0.65304  0.43993  0.68899  1.0000
  Mg  Mg19      1.0  0.60530  0.25672  0.22330  1.0000
  Mg  Mg20      1.0  0.72970  0.47649  0.73834  1.0000
  C  Sn41      1.0  0.53308  0.44990  0.21334  1.0000
  C   C47       1.0  0.48888  0.47584  0.24209  1.0000
  C  Sn42      1.0  0.43214  0.42294  0.28298  1.0000
  C  Sn43      1.0  0.41930  0.34241  0.29547  1.0000
  C   C48       1.0  0.46347  0.31651  0.26675  1.0000
  C  Sn44      1.0  0.52023  0.36937  0.22584  1.0000
  O  Te41      1.0  0.58949  0.50382  0.17264  1.0000
  O  Te42      1.0  0.38868  0.45026  0.31112  1.0000
  O  Te43      1.0  0.36282  0.28849  0.33620  1.0000
  O  Te44      1.0  0.56367  0.34208  0.19773  1.0000
  Mg  Mg21      1.0  0.31854  0.35411  0.36316  1.0000
  Mg  Mg22      1.0  0.63383  0.43818  0.14575  1.0000
  C  Sn45      1.0  0.58023  0.60367  0.72524  1.0000
  C   C49       1.0  0.53115  0.53557  0.74652  1.0000
  C  Sn46      1.0  0.47662  0.53817  0.76553  1.0000
  C  Sn47      1.0  0.47102  0.61034  0.76313  1.0000
  C   C50       1.0  0.52008  0.67839  0.74184  1.0000
  C  Sn48      1.0  0.57464  0.67585  0.72284  1.0000
  O  Te45      1.0  0.63432  0.59971  0.70646  1.0000
  O  Te46      1.0  0.42819  0.46931  0.78667  1.0000
  O  Te47      1.0  0.41688  0.61426  0.78194  1.0000
  O  Te48      1.0  0.62305  0.74465  0.70168  1.0000
  Mg  Mg23      1.0  0.36380  0.50463  0.80712  1.0000
  Mg  Mg24      1.0  0.68745  0.70940  0.68116  1.0000
