data_image0
_chemical_formula_structural       H54C50N6SnCSn2CSnTe4Mg2SnCSn2CSnTe4Mg2SnCSn2CSnTe4Mg2SnCSn2CSnTe4Mg2SnCSn2CSnTe4Mg2
_chemical_formula_sum              "H54 C60 N6 Sn20 Te20 Mg10"
_cell_length_a       20.1213
_cell_length_b       14.3895
_cell_length_c       12.2042
_cell_angle_alpha    70.8533
_cell_angle_beta     108.545
_cell_angle_gamma    118.706

_symmetry_space_group_name_H-M    'P1'
_space_group_IT_number       1

loop_
  _space_group_symop_operation_xyz
  'x, y, z'

loop_
  _atom_site_type_symbol
  _atom_site_label
  _atom_site_symmetry_multiplicity
  _atom_site_fract_x
  _atom_site_fract_y
  _atom_site_fract_z
  _atom_site_occupancy
  H   H1        1.0  0.45088  0.19454  0.93236  1.0000
  H   H2        1.0  0.55463  0.80236  0.07046  1.0000
  H   H3        1.0  0.33463  0.45761  0.73394  1.0000
  H   H4        1.0  0.32743  0.60865  0.77344  1.0000
  H   H5        1.0  0.58048  0.64005  0.75716  1.0000
  H   H6        1.0  0.04391  0.60331  0.29937  1.0000
  H   H7        1.0  0.95896  0.40950  0.68445  1.0000
  H   H8        1.0  0.09048  0.45069  0.66475  1.0000
  H   H9        1.0  0.91258  0.56320  0.31918  1.0000
  H   H10       1.0  0.92590  0.92468  0.72395  1.0000
  H   H11       1.0  0.06935  0.06877  0.30164  1.0000
  H   H12       1.0  0.11137  0.49989  0.31314  1.0000
  H   H13       1.0  0.89143  0.50483  0.67517  1.0000
  H   H14       1.0  0.67105  0.81948  0.22987  1.0000
  H   H15       1.0  0.33432  0.17167  0.77546  1.0000
  H   H16       1.0  0.61681  0.87443  0.25570  1.0000
  H   H17       1.0  0.39116  0.12245  0.74691  1.0000
  H   H18       1.0  0.52930  0.76719  0.40495  1.0000
  H   H19       1.0  0.47408  0.23069  0.59357  1.0000
  H   H20       1.0  0.52354  0.63807  0.48829  1.0000
  H   H21       1.0  0.47920  0.36032  0.51361  1.0000
  H   H22       1.0  0.60459  0.55749  0.45242  1.0000
  H   H23       1.0  0.39713  0.43632  0.55109  1.0000
  H   H24       1.0  0.66374  0.63466  0.34652  1.0000
  H   H25       1.0  0.33938  0.35858  0.65885  1.0000
  H   H26       1.0  0.29834  0.62449  0.52428  1.0000
  H   H27       1.0  0.70241  0.37276  0.47155  1.0000
  H   H28       1.0  0.42679  0.66883  0.49483  1.0000
  H   H29       1.0  0.57486  0.32455  0.50725  1.0000
  H   H30       1.0  0.47070  0.79441  0.19092  1.0000
  H   H31       1.0  0.53577  0.20435  0.81274  1.0000
  H   H32       1.0  0.42347  0.68568  0.11649  1.0000
  H   H33       1.0  0.58176  0.31490  0.88437  1.0000
  H   H34       1.0  0.41538  0.49577  0.23517  1.0000
  H   H35       1.0  0.58773  0.50041  0.76746  1.0000
  H   H36       1.0  0.45734  0.47782  0.38678  1.0000
  H   H37       1.0  0.54597  0.51949  0.61582  1.0000
  H   H38       1.0  0.49940  0.60391  0.08102  1.0000
  H   H39       1.0  0.50309  0.39181  0.92226  1.0000
  H   H40       1.0  0.60102  0.65915  0.12284  1.0000
  H   H41       1.0  0.40159  0.33468  0.87863  1.0000
  H   H42       1.0  0.32002  0.54067  0.17752  1.0000
  H   H43       1.0  0.68532  0.45854  0.82064  1.0000
  H   H44       1.0  0.19191  0.49529  0.20906  1.0000
  H   H45       1.0  0.81246  0.50687  0.78323  1.0000
  H   H46       1.0  0.01697  0.21973  0.43637  1.0000
  H   H47       1.0  0.91715  0.70492  0.68768  1.0000
  H   H48       1.0  0.38902  0.83170  0.97703  1.0000
  H   H49       1.0  0.60615  0.16116  0.01793  1.0000
  H   H50       1.0  0.38553  0.77458  0.83303  1.0000
  H   H51       1.0  0.61119  0.21618  0.16485  1.0000
  H   H52       1.0  0.57273  0.79123  0.79870  1.0000
  H   H53       1.0  0.05392  0.21807  0.44609  1.0000
  H   H54       1.0  0.87770  0.69983  0.66409  1.0000
  C   C1        1.0  0.07535  0.52716  0.48070  1.0000
  C   C2        1.0  0.92731  0.48562  0.50318  1.0000
  C   C3        1.0  0.02469  0.55942  0.38301  1.0000
  C   C4        1.0  0.97816  0.45370  0.60085  1.0000
  C   C5        1.0  0.05122  0.47558  0.58996  1.0000
  C   C6        1.0  0.95163  0.53788  0.39403  1.0000
  C   C7        1.0  0.55261  0.20145  0.16662  1.0000
  C   C8        1.0  0.44438  0.79106  0.83045  1.0000
  C   C9        1.0  0.44998  0.71024  0.79090  1.0000
  C   C10       1.0  0.52087  0.71787  0.78346  1.0000
  C   C11       1.0  0.86928  0.90832  0.73715  1.0000
  C   C12       1.0  0.12435  0.09830  0.27379  1.0000
  C   C13       1.0  0.16008  0.53263  0.38392  1.0000
  C   C14       1.0  0.84238  0.47304  0.60437  1.0000
  C   C15       1.0  0.61591  0.79848  0.25183  1.0000
  C   C16       1.0  0.38963  0.19645  0.75170  1.0000
  C   C17       1.0  0.60815  0.71977  0.37412  1.0000
  C   C18       1.0  0.39532  0.27521  0.62948  1.0000
  C   C19       1.0  0.53013  0.69248  0.40096  1.0000
  C   C20       1.0  0.47302  0.30437  0.60019  1.0000
  C   C21       1.0  0.60816  0.61433  0.36618  1.0000
  C   C22       1.0  0.39477  0.38004  0.63773  1.0000
  C   C23       1.0  0.46188  0.63912  0.30667  1.0000
  C   C24       1.0  0.54184  0.35791  0.69445  1.0000
  C   C25       1.0  0.38396  0.60982  0.33239  1.0000
  C   C26       1.0  0.61947  0.38762  0.66712  1.0000
  C   C27       1.0  0.23639  0.55792  0.36866  1.0000
  C   C28       1.0  0.76628  0.44348  0.62411  1.0000
  C   C29       1.0  0.30383  0.60665  0.44847  1.0000
  C   C30       1.0  0.69802  0.39145  0.54765  1.0000
  C   C31       1.0  0.37614  0.63185  0.43056  1.0000
  C   C32       1.0  0.62618  0.36419  0.56899  1.0000
  C   C33       1.0  0.47203  0.72023  0.18619  1.0000
  C   C34       1.0  0.53316  0.27808  0.81586  1.0000
  C   C35       1.0  0.46470  0.53504  0.30109  1.0000
  C   C36       1.0  0.53861  0.46150  0.70102  1.0000
  C   C37       1.0  0.54806  0.64147  0.14921  1.0000
  C   C38       1.0  0.45532  0.35402  0.85332  1.0000
  C   C39       1.0  0.31604  0.55964  0.25380  1.0000
  C   C40       1.0  0.68818  0.43933  0.74363  1.0000
  C   C41       1.0  0.24360  0.53407  0.27120  1.0000
  C   C42       1.0  0.76012  0.46655  0.72302  1.0000
  C   C43       1.0  0.54088  0.55988  0.27002  1.0000
  C   C44       1.0  0.46225  0.43556  0.73256  1.0000
  C   C45       1.0  0.54839  0.74609  0.15643  1.0000
  C   C46       1.0  0.45666  0.25049  0.84632  1.0000
  C   C47       1.0  0.38747  0.52997  0.74777  1.0000
  C   C48       1.0  0.38312  0.61559  0.76997  1.0000
  C   C49       1.0  0.45840  0.53519  0.74422  1.0000
  C   C50       1.0  0.52459  0.63197  0.76055  1.0000
  N   N1        1.0  0.49123  0.12171  0.12846  1.0000
  N   N2        1.0  0.50525  0.87127  0.86857  1.0000
  N   N3        1.0  0.14940  0.54604  0.47563  1.0000
  N   N4        1.0  0.85290  0.46469  0.50947  1.0000
  N   N5        1.0  0.86226  0.92485  0.83007  1.0000
  N   N6        1.0  0.12710  0.09860  0.16920  1.0000
  C  Sn1       1.0  0.92820  0.96133  0.05641  1.0000
  C   C51       1.0  0.04974  0.79735  0.93395  1.0000
  C  Sn2       1.0  0.77318  0.85387  0.88616  1.0000
  C  Sn3       1.0  0.84665  0.88173  0.96235  1.0000
  C   C52       1.0  0.72509  0.04569  0.08472  1.0000
  C  Sn4       1.0  0.65819  0.98919  0.13260  1.0000
  O  Te1       1.0  0.86054  0.90484  0.10224  1.0000
  O  Te2       1.0  0.76670  0.88222  0.76346  1.0000
  O  Te3       1.0  0.91434  0.93826  0.91641  1.0000
  O  Te4       1.0  0.66464  0.96083  0.25522  1.0000
  Mg  Mg1       1.0  0.87560  0.95881  0.74341  1.0000
  Mg  Mg2       1.0  0.89928  0.88420  0.27537  1.0000
  C  Sn5       1.0  0.32339  0.24026  0.39131  1.0000
  C   C53       1.0  0.32616  0.24890  0.50360  1.0000
  C  Sn6       1.0  0.26007  0.19236  0.55345  1.0000
  C  Sn7       1.0  0.18974  0.12573  0.48977  1.0000
  C   C54       1.0  0.18699  0.11710  0.37756  1.0000
  C  Sn8       1.0  0.25306  0.17363  0.32763  1.0000
  O  Te5       1.0  0.39018  0.29752  0.34320  1.0000
  O  Te6       1.0  0.26426  0.20231  0.66582  1.0000
  O  Te7       1.0  0.12293  0.06846  0.53798  1.0000
  O  Te8       1.0  0.24890  0.16369  0.21534  1.0000
  Mg  Mg3       1.0  0.15772  0.10823  0.69384  1.0000
  Mg  Mg4       1.0  0.35540  0.25769  0.18726  1.0000
  C  Sn9       1.0  0.07733  0.95259  0.94238  1.0000
  C   C55       1.0  0.14150  0.95739  0.91524  1.0000
  C  Sn10      1.0  0.08108  0.15726  0.00217  1.0000
  C  Sn11      1.0  0.08310  0.15913  0.11869  1.0000
  C   C56       1.0  0.01895  0.15431  0.14578  1.0000
  C  Sn12      1.0  0.95280  0.14763  0.05890  1.0000
  O  Te9       1.0  0.01183  0.94591  0.85408  1.0000
  O  Te10      1.0  0.27107  0.96883  0.97291  1.0000
  O  Te11      1.0  0.14867  0.16581  0.20700  1.0000
  O  Te12      1.0  0.88937  0.14287  0.08812  1.0000
  Mg  Mg5       1.0  0.22045  0.17041  0.12383  1.0000
  Mg  Mg6       1.0  0.93995  0.94124  0.93729  1.0000
  C  Sn13      1.0  0.76707  0.78151  0.49291  1.0000
  C   C57       1.0  0.68877  0.75025  0.48628  1.0000
  C  Sn14      1.0  0.66593  0.78536  0.55624  1.0000
  C  Sn15      1.0  0.72252  0.85318  0.63442  1.0000
  C   C58       1.0  0.45728  0.88442  0.64101  1.0000
  C  Sn16      1.0  0.82367  0.84933  0.57109  1.0000
  O  Te13      1.0  0.78859  0.74545  0.42214  1.0000
  O  Te14      1.0  0.58730  0.75302  0.54809  1.0000
  O  Te15      1.0  0.35745  0.88923  0.70522  1.0000
  O  Te16      1.0  0.90224  0.88166  0.57920  1.0000
  Mg  Mg7       1.0  0.58677  0.82331  0.66252  1.0000
  Mg  Mg8       1.0  0.90283  0.81146  0.46477  1.0000
  C  Sn17      1.0  0.62368  0.38418  0.27138  1.0000
  C   C59       1.0  0.56231  0.28803  0.24373  1.0000
  C  Sn18      1.0  0.48653  0.27849  0.21128  1.0000
  C  Sn19      1.0  0.47177  0.36691  0.20631  1.0000
  C   C60       1.0  0.53312  0.46300  0.23393  1.0000
  C  Sn20      1.0  0.60893  0.47261  0.26640  1.0000
  O  Te17      1.0  0.69898  0.39192  0.30358  1.0000
  O  Te18      1.0  0.42612  0.18153  0.18407  1.0000
  O  Te19      1.0  0.39640  0.35910  0.17407  1.0000
  O  Te20      1.0  0.66931  0.56949  0.29359  1.0000
  Mg  Mg9       1.0  0.33352  0.21039  0.14498  1.0000
  Mg  Mg10      1.0  0.76194  0.54075  0.33262  1.0000
