data_image0
_chemical_formula_structural       H56C62N6SnCSn2CSnTe4Mg2SnCSn2CSnTe4Mg2SnCSn2CSnTe4Mg2SnCSn2CSnTe4Mg2SnCSn2CSnTe4Mg2SnCSn2CSnTe4Mg2
_chemical_formula_sum              "H56 C74 N6 Sn24 Te24 Mg12"
_cell_length_a       25.4368
_cell_length_b       18.8915
_cell_length_c       10.4803
_cell_angle_alpha    81.8511
_cell_angle_beta     83.0476
_cell_angle_gamma    111.201

_symmetry_space_group_name_H-M    'P1'
_space_group_IT_number       1

loop_
  _space_group_symop_operation_xyz
  'x, y, z'

loop_
  _atom_site_type_symbol
  _atom_site_label
  _atom_site_symmetry_multiplicity
  _atom_site_fract_x
  _atom_site_fract_y
  _atom_site_fract_z
  _atom_site_occupancy
  H   H1        1.0  0.05724  0.07177  0.29700  1.0000
  H   H2        1.0  0.94370  0.00100  0.69578  1.0000
  H   H3        1.0  0.02320  0.97470  0.70962  1.0000
  H   H4        1.0  0.98154  0.96270  0.30613  1.0000
  H   H5        1.0  0.16113  0.13062  0.30041  1.0000
  H   H6        1.0  0.83984  0.94531  0.69122  1.0000
  H   H7        1.0  0.24063  0.16221  0.42079  1.0000
  H   H8        1.0  0.76030  0.88110  0.58262  1.0000
  H   H9        1.0  0.67169  0.86405  0.52923  1.0000
  H   H10       1.0  0.57556  0.78926  0.49212  1.0000
  H   H11       1.0  0.65013  0.70958  0.17971  1.0000
  H   H12       1.0  0.74692  0.78550  0.21701  1.0000
  H   H13       1.0  0.12749  0.03658  0.71363  1.0000
  H   H14       1.0  0.87719  0.90854  0.30067  1.0000
  H   H15       1.0  0.75792  0.37088  0.13855  1.0000
  H   H16       1.0  0.23796  0.58632  0.85574  1.0000
  H   H17       1.0  0.60740  0.36293  0.80387  1.0000
  H   H18       1.0  0.39694  0.64684  0.18810  1.0000
  H   H19       1.0  0.56608  0.26845  0.78562  1.0000
  H   H20       1.0  0.44024  0.73977  0.20928  1.0000
  H   H21       1.0  0.50508  0.24889  0.60668  1.0000
  H   H22       1.0  0.49755  0.75596  0.39001  1.0000
  H   H23       1.0  0.50566  0.33073  0.49862  1.0000
  H   H24       1.0  0.49562  0.67392  0.49989  1.0000
  H   H25       1.0  0.53458  0.24346  0.27294  1.0000
  H   H26       1.0  0.45242  0.74068  0.77013  1.0000
  H   H27       1.0  0.98194  0.49010  0.22597  1.0000
  H   H28       1.0  0.94018  0.44607  0.85106  1.0000
  H   H29       1.0  0.83694  0.39053  0.94954  1.0000
  H   H30       1.0  0.32839  0.57523  0.33057  1.0000
  H   H31       1.0  0.23790  0.56639  0.46018  1.0000
  H   H32       1.0  0.33173  0.69727  0.71966  1.0000
  H   H33       1.0  0.42312  0.71038  0.58504  1.0000
  H   H34       1.0  0.39326  0.52651  0.34797  1.0000
  H   H35       1.0  0.60733  0.47914  0.65010  1.0000
  H   H36       1.0  0.43434  0.53805  0.47321  1.0000
  H   H37       1.0  0.56570  0.46730  0.52554  1.0000
  H   H38       1.0  0.58078  0.72782  0.09388  1.0000
  H   H39       1.0  0.42333  0.27329  0.90698  1.0000
  H   H40       1.0  0.54754  0.78717  0.15355  1.0000
  H   H41       1.0  0.45802  0.21699  0.84173  1.0000
  H   H42       1.0  0.54342  0.58582  0.41545  1.0000
  H   H43       1.0  0.45798  0.41620  0.58316  1.0000
  H   H44       1.0  0.57745  0.60888  0.24906  1.0000
  H   H45       1.0  0.42291  0.39332  0.74852  1.0000
  H   H46       1.0  0.44309  0.55747  0.10778  1.0000
  H   H47       1.0  0.55753  0.44753  0.89233  1.0000
  H   H48       1.0  0.51838  0.59028  0.06716  1.0000
  H   H49       1.0  0.48196  0.41035  0.93225  1.0000
  H   H50       1.0  0.48728  0.70079  0.02320  1.0000
  H   H51       1.0  0.51768  0.30427  0.97338  1.0000
  H   H52       1.0  0.38702  0.42601  0.30431  1.0000
  H   H53       1.0  0.87813  0.43297  0.32412  1.0000
  H   H54       1.0  0.37986  0.29762  0.26489  1.0000
  H   H55       1.0  0.56337  0.37235  0.21676  1.0000
  H   H56       1.0  0.57083  0.50019  0.25326  1.0000
  C   C1        1.0  0.97043  0.98619  0.50125  1.0000
  C   C2        1.0  0.03242  0.01937  0.50310  1.0000
  C   C3        1.0  0.92932  0.97991  0.60967  1.0000
  C   C4        1.0  0.07253  0.06257  0.38796  1.0000
  C   C5        1.0  0.95058  0.96021  0.38957  1.0000
  C   C6        1.0  0.05330  0.00973  0.62044  1.0000
  C   C7        1.0  0.87084  0.94919  0.60646  1.0000
  C   C8        1.0  0.13094  0.09614  0.39012  1.0000
  C   C9        1.0  0.79018  0.88880  0.49168  1.0000
  C   C10       1.0  0.21159  0.12823  0.51370  1.0000
  C   C11       1.0  0.60462  0.74217  0.33423  1.0000
  C   C12       1.0  0.71661  0.82851  0.37684  1.0000
  C   C13       1.0  0.66748  0.82982  0.45295  1.0000
  C   C14       1.0  0.61262  0.78744  0.43102  1.0000
  C   C15       1.0  0.65422  0.74266  0.25740  1.0000
  C   C16       1.0  0.70876  0.78513  0.27693  1.0000
  C   C17       1.0  0.85144  0.92365  0.49457  1.0000
  C   C18       1.0  0.15118  0.08776  0.50813  1.0000
  C   C19       1.0  0.89251  0.92967  0.38596  1.0000
  C   C20       1.0  0.11136  0.04319  0.62307  1.0000
  C   C21       1.0  0.49957  0.22143  0.21868  1.0000
  C   C22       1.0  0.49415  0.77385  0.79438  1.0000
  C   C23       1.0  0.47969  0.47498  0.27940  1.0000
  C   C24       1.0  0.95040  0.46720  0.16548  1.0000
  C   C25       1.0  0.92693  0.44442  0.95451  1.0000
  C   C26       1.0  0.86861  0.41245  0.01044  1.0000
  C   C27       1.0  0.20854  0.59601  0.79274  1.0000
  C   C28       1.0  0.78970  0.38483  0.20324  1.0000
  C   C29       1.0  0.43748  0.67980  0.21683  1.0000
  C   C30       1.0  0.56681  0.32745  0.77806  1.0000
  C   C31       1.0  0.43730  0.64626  0.36098  1.0000
  C   C32       1.0  0.56482  0.35958  0.63480  1.0000
  C   C33       1.0  0.49449  0.69585  0.39759  1.0000
  C   C34       1.0  0.50757  0.30870  0.60022  1.0000
  C   C35       1.0  0.38340  0.64305  0.44793  1.0000
  C   C36       1.0  0.32992  0.60257  0.41539  1.0000
  C   C37       1.0  0.27874  0.59706  0.48752  1.0000
  C   C38       1.0  0.27812  0.62904  0.60089  1.0000
  C   C39       1.0  0.33105  0.66987  0.63488  1.0000
  C   C40       1.0  0.38269  0.67718  0.55820  1.0000
  C   C41       1.0  0.43431  0.56202  0.37123  1.0000
  C   C42       1.0  0.56651  0.44297  0.62675  1.0000
  C   C43       1.0  0.54624  0.69450  0.30483  1.0000
  C   C44       1.0  0.45597  0.30858  0.69492  1.0000
  C   C45       1.0  0.54397  0.72681  0.16187  1.0000
  C   C46       1.0  0.46012  0.27653  0.83630  1.0000
  C   C47       1.0  0.54072  0.60918  0.31521  1.0000
  C   C48       1.0  0.46024  0.39335  0.68410  1.0000
  C   C49       1.0  0.48319  0.59321  0.13551  1.0000
  C   C50       1.0  0.51824  0.41022  0.86362  1.0000
  C   C51       1.0  0.48453  0.55817  0.27792  1.0000
  C   C52       1.0  0.51620  0.44511  0.72172  1.0000
  C   C53       1.0  0.48785  0.67722  0.12463  1.0000
  C   C54       1.0  0.51606  0.32747  0.87251  1.0000
  C   C55       1.0  0.42610  0.41517  0.28536  1.0000
  C   C56       1.0  0.85039  0.40888  0.14423  1.0000
  C   C57       1.0  0.89261  0.43561  0.22102  1.0000
  C   C58       1.0  0.96900  0.47368  0.03033  1.0000
  C   C59       1.0  0.42153  0.34250  0.26322  1.0000
  C   C60       1.0  0.47073  0.32529  0.23758  1.0000
  C   C61       1.0  0.52439  0.38340  0.23749  1.0000
  C   C62       1.0  0.52842  0.45644  0.25787  1.0000
  N   N1        1.0  0.77397  0.86615  0.38722  1.0000
  N   N2        1.0  0.22860  0.12769  0.62468  1.0000
  N   N3        1.0  0.46335  0.25395  0.20289  1.0000
  N   N4        1.0  0.53656  0.75135  0.78353  1.0000
  N   N5        1.0  0.22357  0.61788  0.66706  1.0000
  N   N6        1.0  0.77680  0.38705  0.32511  1.0000
  C  Sn1       1.0  0.28056  0.89292  0.92705  1.0000
  C   C63       1.0  0.50284  0.83817  0.88987  1.0000
  C  Sn2       1.0  0.45238  0.85078  0.88236  1.0000
  C  Sn3       1.0  0.17952  0.91958  0.91257  1.0000
  C   C64       1.0  0.22580  0.97429  0.94970  1.0000
  C  Sn4       1.0  0.27629  0.96172  0.95726  1.0000
  O  Te1       1.0  0.59918  0.87911  0.93388  1.0000
  O  Te2       1.0  0.40666  0.79519  0.84500  1.0000
  O  Te3       1.0  0.12943  0.93335  0.90571  1.0000
  O  Te4       1.0  0.32199  0.01727  0.99457  1.0000
  Mg  Mg1       1.0  0.34749  0.84038  0.84999  1.0000
  Mg  Mg2       1.0  0.38119  0.97216  0.98955  1.0000
  C  Sn5       1.0  0.58023  0.60367  0.72524  1.0000
  C   C65       1.0  0.53115  0.53557  0.74652  1.0000
  C  Sn6       1.0  0.47662  0.53817  0.76553  1.0000
  C  Sn7       1.0  0.47102  0.61034  0.76313  1.0000
  C   C66       1.0  0.52008  0.67839  0.74184  1.0000
  C  Sn8       1.0  0.57464  0.67585  0.72284  1.0000
  O  Te5       1.0  0.63432  0.59971  0.70646  1.0000
  O  Te6       1.0  0.42819  0.46931  0.78667  1.0000
  O  Te7       1.0  0.41688  0.61426  0.78194  1.0000
  O  Te8       1.0  0.62305  0.74465  0.70168  1.0000
  Mg  Mg3       1.0  0.36380  0.50463  0.80712  1.0000
  Mg  Mg4       1.0  0.68745  0.70940  0.68116  1.0000
  C  Sn9       1.0  0.55204  0.12260  0.13794  1.0000
  C   C67       1.0  0.51530  0.16244  0.13219  1.0000
  C  Sn10      1.0  0.46383  0.13146  0.08727  1.0000
  C  Sn11      1.0  0.44875  0.05913  0.04732  1.0000
  C   C68       1.0  0.48547  0.01932  0.05310  1.0000
  C  Sn12      1.0  0.53696  0.05027  0.09799  1.0000
  O  Te9       1.0  0.60327  0.15466  0.18319  1.0000
  O  Te10      1.0  0.42781  0.17238  0.08237  1.0000
  O  Te11      1.0  0.39747  0.02709  0.00205  1.0000
  O  Te12      1.0  0.57296  0.00938  0.10292  1.0000
  Mg  Mg5       1.0  0.36263  0.10477  0.01352  1.0000
  Mg  Mg6       1.0  0.63813  0.07692  0.17182  1.0000
  C  Sn13      1.0  0.09686  0.60138  0.80344  1.0000
  C   C69       1.0  0.14252  0.59388  0.85801  1.0000
  C  Sn14      1.0  0.13214  0.53809  0.97095  1.0000
  C  Sn15      1.0  0.15659  0.60711  0.03057  1.0000
  C   C70       1.0  0.02929  0.49620  0.97601  1.0000
  C  Sn16      1.0  0.03964  0.55200  0.86307  1.0000
  O  Te13      1.0  0.10824  0.65756  0.69049  1.0000
  O  Te14      1.0  0.26017  0.65012  0.02372  1.0000
  O  Te15      1.0  0.14524  0.55090  0.14362  1.0000
  O  Te16      1.0  0.99332  0.55838  0.81030  1.0000
  Mg  Mg7       1.0  0.22272  0.56463  0.17859  1.0000
  Mg  Mg8       1.0  0.03072  0.64381  0.65540  1.0000
  C  Sn17      1.0  0.37936  0.22487  0.53221  1.0000
  C   C71       1.0  0.39476  0.26746  0.62995  1.0000
  C  Sn18      1.0  0.35451  0.25599  0.74203  1.0000
  C  Sn19      1.0  0.29768  0.20075  0.75679  1.0000
  C   C72       1.0  0.28230  0.15818  0.65910  1.0000
  C  Sn20      1.0  0.32253  0.16963  0.54697  1.0000
  O  Te17      1.0  0.42030  0.23729  0.42099  1.0000
  O  Te18      1.0  0.37092  0.29928  0.83839  1.0000
  O  Te19      1.0  0.25673  0.18835  0.86813  1.0000
  O  Te20      1.0  0.30615  0.12636  0.45066  1.0000
  Mg  Mg9       1.0  0.29976  0.26146  0.97221  1.0000
  Mg  Mg10      1.0  0.37728  0.16411  0.31684  1.0000
  C  Sn21      1.0  0.62670  0.30075  0.45016  1.0000
  C   C73       1.0  0.62024  0.33921  0.55181  1.0000
  C  Sn22      1.0  0.66616  0.40350  0.56824  1.0000
  C  Sn23      1.0  0.71966  0.42995  0.48122  1.0000
  C   C74       1.0  0.72610  0.39151  0.37964  1.0000
  C  Sn24      1.0  0.68020  0.32720  0.36314  1.0000
  O  Te21      1.0  0.58021  0.23661  0.43556  1.0000
  O  Te22      1.0  0.65867  0.44098  0.67062  1.0000
  O  Te23      1.0  0.76616  0.49415  0.49590  1.0000
  O  Te24      1.0  0.68767  0.28974  0.26082  1.0000
  Mg  Mg11      1.0  0.73477  0.52581  0.65020  1.0000
  Mg  Mg12      1.0  0.61159  0.20493  0.28111  1.0000
