data_image0
_chemical_formula_structural       H56C62N6C2Sn2C2HTe2HMgC2Sn2C2HTe2HMgC2Sn2C2HTe2HMgC2Sn2C2HTe2HMgC2Sn2C2HTe2HMgC2Sn2C2HTe2HMg
_chemical_formula_sum              "H68 C86 N6 Sn12 Te12 Mg6"
_cell_length_a       25.4368
_cell_length_b       18.8915
_cell_length_c       10.4803
_cell_angle_alpha    81.8511
_cell_angle_beta     83.0476
_cell_angle_gamma    111.201

_symmetry_space_group_name_H-M    'P1'
_space_group_IT_number       1

loop_
  _space_group_symop_operation_xyz
  'x, y, z'

loop_
  _atom_site_type_symbol
  _atom_site_label
  _atom_site_symmetry_multiplicity
  _atom_site_fract_x
  _atom_site_fract_y
  _atom_site_fract_z
  _atom_site_occupancy
  H   H1        1.0  0.24063  0.16221  0.42079  1.0000
  H   H2        1.0  0.76030  0.88110  0.58262  1.0000
  H   H3        1.0  0.32911  0.14000  0.47088  1.0000
  H   H4        1.0  0.42629  0.21738  0.50224  1.0000
  H   H5        1.0  0.35284  0.28696  0.83037  1.0000
  H   H6        1.0  0.25567  0.20670  0.80169  1.0000
  H   H7        1.0  0.75792  0.37088  0.13855  1.0000
  H   H8        1.0  0.23796  0.58632  0.85574  1.0000
  H   H9        1.0  0.60740  0.36293  0.80387  1.0000
  H   H10       1.0  0.39694  0.64684  0.18810  1.0000
  H   H11       1.0  0.56608  0.26845  0.78562  1.0000
  H   H12       1.0  0.44024  0.73977  0.20928  1.0000
  H   H13       1.0  0.50508  0.24889  0.60668  1.0000
  H   H14       1.0  0.49755  0.75596  0.39001  1.0000
  H   H15       1.0  0.50566  0.33073  0.49862  1.0000
  H   H16       1.0  0.49562  0.67392  0.49989  1.0000
  H   H17       1.0  0.42682  0.04430  0.95723  1.0000
  H   H18       1.0  0.56862  0.03349  0.13506  1.0000
  H   H19       1.0  0.42660  0.15229  0.06640  1.0000
  H   H20       1.0  0.56941  0.14295  0.23933  1.0000
  H   H21       1.0  0.53458  0.24346  0.27294  1.0000
  H   H22       1.0  0.45242  0.74068  0.77013  1.0000
  H   H23       1.0  0.01895  0.56426  0.78730  1.0000
  H   H24       1.0  0.98194  0.49010  0.22597  1.0000
  H   H25       1.0  0.05826  0.46832  0.14383  1.0000
  H   H26       1.0  0.94018  0.44607  0.85106  1.0000
  H   H27       1.0  0.16147  0.52521  0.04376  1.0000
  H   H28       1.0  0.83694  0.39053  0.94954  1.0000
  H   H29       1.0  0.32839  0.57523  0.33057  1.0000
  H   H30       1.0  0.67464  0.44325  0.64604  1.0000
  H   H31       1.0  0.23790  0.56639  0.46018  1.0000
  H   H32       1.0  0.76432  0.45085  0.51312  1.0000
  H   H33       1.0  0.33173  0.69727  0.71966  1.0000
  H   H34       1.0  0.66686  0.29246  0.29260  1.0000
  H   H35       1.0  0.42312  0.71038  0.58504  1.0000
  H   H36       1.0  0.57690  0.28209  0.42920  1.0000
  H   H37       1.0  0.39326  0.52651  0.34797  1.0000
  H   H38       1.0  0.60733  0.47914  0.65010  1.0000
  H   H39       1.0  0.43434  0.53805  0.47321  1.0000
  H   H40       1.0  0.56570  0.46730  0.52554  1.0000
  H   H41       1.0  0.58078  0.72782  0.09388  1.0000
  H   H42       1.0  0.42333  0.27329  0.90698  1.0000
  H   H43       1.0  0.54754  0.78717  0.15355  1.0000
  H   H44       1.0  0.45802  0.21699  0.84173  1.0000
  H   H45       1.0  0.54342  0.58582  0.41545  1.0000
  H   H46       1.0  0.45798  0.41620  0.58316  1.0000
  H   H47       1.0  0.57745  0.60888  0.24906  1.0000
  H   H48       1.0  0.42291  0.39332  0.74852  1.0000
  H   H49       1.0  0.44309  0.55747  0.10778  1.0000
  H   H50       1.0  0.55753  0.44753  0.89233  1.0000
  H   H51       1.0  0.51838  0.59028  0.06716  1.0000
  H   H52       1.0  0.48196  0.41035  0.93225  1.0000
  H   H53       1.0  0.48728  0.70079  0.02320  1.0000
  H   H54       1.0  0.51768  0.30427  0.97338  1.0000
  H   H55       1.0  0.12275  0.61848  0.68557  1.0000
  H   H56       1.0  0.87813  0.43297  0.32412  1.0000
  C   C1        1.0  0.79018  0.88880  0.49168  1.0000
  C   C2        1.0  0.21159  0.12823  0.51370  1.0000
  C   C3        1.0  0.39763  0.25953  0.66769  1.0000
  C   C4        1.0  0.28561  0.16989  0.63245  1.0000
  C   C5        1.0  0.33432  0.17316  0.54865  1.0000
  C   C6        1.0  0.38947  0.21694  0.56751  1.0000
  C   C7        1.0  0.34823  0.25523  0.75083  1.0000
  C   C8        1.0  0.29351  0.21045  0.73592  1.0000
  C   C9        1.0  0.49746  0.02994  0.03834  1.0000
  C   C10       1.0  0.45729  0.06451  0.02134  1.0000
  C   C11       1.0  0.53771  0.05960  0.11816  1.0000
  C   C12       1.0  0.45706  0.12516  0.08159  1.0000
  C   C13       1.0  0.53782  0.12086  0.17822  1.0000
  C   C14       1.0  0.49957  0.22143  0.21868  1.0000
  C   C15       1.0  0.49415  0.77385  0.79438  1.0000
  C   C16       1.0  0.49744  0.15472  0.16112  1.0000
  C   C17       1.0  0.05005  0.55448  0.84275  1.0000
  C   C18       1.0  0.95040  0.46720  0.16548  1.0000
  C   C19       1.0  0.07213  0.50231  0.04426  1.0000
  C   C20       1.0  0.92693  0.44442  0.95451  1.0000
  C   C21       1.0  0.13023  0.53408  0.98776  1.0000
  C   C22       1.0  0.86861  0.41245  0.01044  1.0000
  C   C23       1.0  0.20854  0.59601  0.79274  1.0000
  C   C24       1.0  0.78970  0.38483  0.20324  1.0000
  C   C25       1.0  0.43748  0.67980  0.21683  1.0000
  C   C26       1.0  0.56681  0.32745  0.77806  1.0000
  C   C27       1.0  0.43730  0.64626  0.36098  1.0000
  C   C28       1.0  0.56482  0.35958  0.63480  1.0000
  C   C29       1.0  0.49449  0.69585  0.39759  1.0000
  C   C30       1.0  0.50757  0.30870  0.60022  1.0000
  C   C31       1.0  0.38340  0.64305  0.44793  1.0000
  C   C32       1.0  0.61829  0.36341  0.54584  1.0000
  C   C33       1.0  0.32992  0.60257  0.41539  1.0000
  C   C34       1.0  0.67223  0.41057  0.56792  1.0000
  C   C35       1.0  0.27874  0.59706  0.48752  1.0000
  C   C36       1.0  0.72279  0.41526  0.49430  1.0000
  C   C37       1.0  0.27812  0.62904  0.60089  1.0000
  C   C38       1.0  0.72225  0.37485  0.39101  1.0000
  C   C39       1.0  0.33105  0.66987  0.63488  1.0000
  C   C40       1.0  0.66869  0.32673  0.36837  1.0000
  C   C41       1.0  0.38269  0.67718  0.55820  1.0000
  C   C42       1.0  0.61784  0.32109  0.44586  1.0000
  C   C43       1.0  0.43431  0.56202  0.37123  1.0000
  C   C44       1.0  0.56651  0.44297  0.62675  1.0000
  C   C45       1.0  0.54624  0.69450  0.30483  1.0000
  C   C46       1.0  0.45597  0.30858  0.69492  1.0000
  C   C47       1.0  0.54397  0.72681  0.16187  1.0000
  C   C48       1.0  0.46012  0.27653  0.83630  1.0000
  C   C49       1.0  0.54072  0.60918  0.31521  1.0000
  C   C50       1.0  0.46024  0.39335  0.68410  1.0000
  C   C51       1.0  0.48319  0.59321  0.13551  1.0000
  C   C52       1.0  0.51824  0.41022  0.86362  1.0000
  C   C53       1.0  0.48453  0.55817  0.27792  1.0000
  C   C54       1.0  0.51620  0.44511  0.72172  1.0000
  C   C55       1.0  0.48785  0.67722  0.12463  1.0000
  C   C56       1.0  0.51606  0.32747  0.87251  1.0000
  C   C57       1.0  0.14894  0.57455  0.85678  1.0000
  C   C58       1.0  0.85039  0.40888  0.14423  1.0000
  C   C59       1.0  0.10791  0.58585  0.78608  1.0000
  C   C60       1.0  0.89261  0.43561  0.22102  1.0000
  C   C61       1.0  0.03069  0.51040  0.97210  1.0000
  C   C62       1.0  0.96900  0.47368  0.03033  1.0000
  N   N1        1.0  0.77397  0.86615  0.38722  1.0000
  N   N2        1.0  0.22860  0.12769  0.62468  1.0000
  N   N3        1.0  0.46335  0.25395  0.20289  1.0000
  N   N4        1.0  0.53656  0.75135  0.78353  1.0000
  N   N5        1.0  0.22357  0.61788  0.66706  1.0000
  N   N6        1.0  0.77680  0.38705  0.32511  1.0000
  C   C63       1.0  0.11931  0.09129  0.37021  1.0000
  C   C64       1.0  0.14738  0.09286  0.47710  1.0000
  C  Sn1       1.0  0.11658  0.05235  0.60221  1.0000
  C  Sn2       1.0  0.05658  0.00951  0.62035  1.0000
  C   C65       1.0  0.02891  0.00826  0.51278  1.0000
  C   C66       1.0  0.06014  0.04902  0.38801  1.0000
  H   H57       1.0  0.14347  0.12279  0.27366  1.0000
  O  Te1       1.0  0.14529  0.05456  0.70793  1.0000
  O  Te2       1.0  0.02476  0.96847  0.74433  1.0000
  H   H58       1.0  0.03840  0.04776  0.30526  1.0000
  Mg  Mg1       1.0  0.08324  0.98927  0.85785  1.0000
  C   C67       1.0  0.65170  0.82532  0.45990  1.0000
  C   C68       1.0  0.70495  0.82779  0.40195  1.0000
  C  Sn3       1.0  0.70882  0.78835  0.30033  1.0000
  C  Sn4       1.0  0.65837  0.74569  0.25609  1.0000
  C   C69       1.0  0.60530  0.74362  0.31465  1.0000
  C   C70       1.0  0.60192  0.78329  0.41630  1.0000
  H   H59       1.0  0.64908  0.85604  0.53850  1.0000
  O  Te3       1.0  0.76236  0.79141  0.24354  1.0000
  O  Te4       1.0  0.66101  0.70576  0.15466  1.0000
  H   H60       1.0  0.56068  0.78140  0.46109  1.0000
  Mg  Mg2       1.0  0.74390  0.72742  0.10840  1.0000
  C   C71       1.0  0.53559  0.44247  0.25436  1.0000
  C   C72       1.0  0.49279  0.47223  0.26977  1.0000
  C  Sn5       1.0  0.43543  0.42466  0.27615  1.0000
  C  Sn6       1.0  0.42077  0.34584  0.26694  1.0000
  C   C73       1.0  0.46390  0.31661  0.25163  1.0000
  C   C74       1.0  0.52116  0.36473  0.24532  1.0000
  H   H61       1.0  0.57989  0.47969  0.24955  1.0000
  O  Te5       1.0  0.39322  0.45534  0.29152  1.0000
  O  Te6       1.0  0.36378  0.29700  0.27308  1.0000
  H   H62       1.0  0.55428  0.34166  0.23347  1.0000
  Mg  Mg3       1.0  0.32161  0.36576  0.29460  1.0000
  C   C75       1.0  0.16988  0.89946  0.92514  1.0000
  C   C76       1.0  0.21435  0.95062  0.97322  1.0000
  C  Sn7       1.0  0.26929  0.94947  0.95111  1.0000
  C  Sn8       1.0  0.27978  0.89608  0.87947  1.0000
  C   C77       1.0  0.50359  0.84517  0.83170  1.0000
  C   C78       1.0  0.44877  0.84679  0.85443  1.0000
  H   H63       1.0  0.12747  0.90074  0.94265  1.0000
  O  Te7       1.0  0.31323  0.00097  0.99988  1.0000
  O  Te8       1.0  0.60287  0.89372  0.85591  1.0000
  H   H64       1.0  0.41436  0.80721  0.81711  1.0000
  Mg  Mg4       1.0  0.38021  0.97550  0.94238  1.0000
  C   C79       1.0  0.58456  0.65168  0.69884  1.0000
  C   C80       1.0  0.54119  0.67659  0.74136  1.0000
  C  Sn9       1.0  0.48435  0.62367  0.77998  1.0000
  C  Sn10      1.0  0.47081  0.54437  0.77589  1.0000
  C   C81       1.0  0.51451  0.52002  0.73328  1.0000
  C   C82       1.0  0.57124  0.57347  0.69482  1.0000
  H   H65       1.0  0.62846  0.69302  0.66914  1.0000
  O  Te9       1.0  0.44154  0.64954  0.82216  1.0000
  O  Te10      1.0  0.41436  0.49024  0.81398  1.0000
  H   H66       1.0  0.60482  0.55416  0.66198  1.0000
  Mg  Mg5       1.0  0.37103  0.55369  0.86406  1.0000
  C   C83       1.0  0.90762  0.93673  0.36765  1.0000
  C   C84       1.0  0.86095  0.92170  0.46730  1.0000
  C  Sn11      1.0  0.60135  0.94337  0.58739  1.0000
  C  Sn12      1.0  0.65818  0.98081  0.60778  1.0000
  C   C85       1.0  0.70458  0.99563  0.50743  1.0000
  C   C86       1.0  0.69510  0.97367  0.38766  1.0000
  H   H67       1.0  0.90029  0.91978  0.27495  1.0000
  O  Te11      1.0  0.55424  0.92789  0.68592  1.0000
  O  Te12      1.0  0.66839  0.00312  0.72684  1.0000
  H   H68       1.0  0.73124  0.98536  0.31049  1.0000
  Mg  Mg6       1.0  0.59015  0.96940  0.83116  1.0000
