data_image0
_chemical_formula_structural       H56C56N6C2Sn2C2HTe2HMgC2Sn2C2HTe2HMgC2Sn2C2HTe2HMgC2Sn2C2HTe2HMgC2Sn2C2HTe2HMg
_chemical_formula_sum              "H66 C76 N6 Sn10 Te10 Mg5"
_cell_length_a       20.1213
_cell_length_b       14.3895
_cell_length_c       12.2042
_cell_angle_alpha    70.8533
_cell_angle_beta     108.545
_cell_angle_gamma    118.706

_symmetry_space_group_name_H-M    'P1'
_space_group_IT_number       1

loop_
  _space_group_symop_operation_xyz
  'x, y, z'

loop_
  _atom_site_type_symbol
  _atom_site_label
  _atom_site_symmetry_multiplicity
  _atom_site_fract_x
  _atom_site_fract_y
  _atom_site_fract_z
  _atom_site_occupancy
  H   H1        1.0  0.45088  0.19454  0.93236  1.0000
  H   H2        1.0  0.55463  0.80236  0.07046  1.0000
  H   H3        1.0  0.33463  0.45761  0.73394  1.0000
  H   H4        1.0  0.32743  0.60865  0.77344  1.0000
  H   H5        1.0  0.58048  0.64005  0.75716  1.0000
  H   H6        1.0  0.92590  0.92468  0.72395  1.0000
  H   H7        1.0  0.06935  0.06877  0.30164  1.0000
  H   H8        1.0  0.11137  0.49989  0.31314  1.0000
  H   H9        1.0  0.89143  0.50483  0.67517  1.0000
  H   H10       1.0  0.67105  0.81948  0.22987  1.0000
  H   H11       1.0  0.33432  0.17167  0.77546  1.0000
  H   H12       1.0  0.61681  0.87443  0.25570  1.0000
  H   H13       1.0  0.39116  0.12245  0.74691  1.0000
  H   H14       1.0  0.52930  0.76719  0.40495  1.0000
  H   H15       1.0  0.47408  0.23069  0.59357  1.0000
  H   H16       1.0  0.52354  0.63807  0.48829  1.0000
  H   H17       1.0  0.47920  0.36032  0.51361  1.0000
  H   H18       1.0  0.76289  0.78889  0.38594  1.0000
  H   H19       1.0  0.87301  0.86951  0.53902  1.0000
  H   H20       1.0  0.71813  0.84795  0.72999  1.0000
  H   H21       1.0  0.60742  0.76843  0.57636  1.0000
  H   H22       1.0  0.60459  0.55749  0.45242  1.0000
  H   H23       1.0  0.39713  0.43632  0.55109  1.0000
  H   H24       1.0  0.66374  0.63466  0.34652  1.0000
  H   H25       1.0  0.33938  0.35858  0.65885  1.0000
  H   H26       1.0  0.29834  0.62449  0.52428  1.0000
  H   H27       1.0  0.70241  0.37276  0.47155  1.0000
  H   H28       1.0  0.42679  0.66883  0.49483  1.0000
  H   H29       1.0  0.57486  0.32455  0.50725  1.0000
  H   H30       1.0  0.47070  0.79441  0.19092  1.0000
  H   H31       1.0  0.53577  0.20435  0.81274  1.0000
  H   H32       1.0  0.42347  0.68568  0.11649  1.0000
  H   H33       1.0  0.58176  0.31490  0.88437  1.0000
  H   H34       1.0  0.41538  0.49577  0.23517  1.0000
  H   H35       1.0  0.58773  0.50041  0.76746  1.0000
  H   H36       1.0  0.45734  0.47782  0.38678  1.0000
  H   H37       1.0  0.54597  0.51949  0.61582  1.0000
  H   H38       1.0  0.49940  0.60391  0.08102  1.0000
  H   H39       1.0  0.50309  0.39181  0.92226  1.0000
  H   H40       1.0  0.60102  0.65915  0.12284  1.0000
  H   H41       1.0  0.40159  0.33468  0.87863  1.0000
  H   H42       1.0  0.32002  0.54067  0.17752  1.0000
  H   H43       1.0  0.68532  0.45854  0.82064  1.0000
  H   H44       1.0  0.19191  0.49529  0.20906  1.0000
  H   H45       1.0  0.81246  0.50687  0.78323  1.0000
  H   H46       1.0  0.01697  0.21973  0.43637  1.0000
  H   H47       1.0  0.91715  0.70492  0.68768  1.0000
  H   H48       1.0  0.98359  0.94092  0.21226  1.0000
  H   H49       1.0  0.00279  0.08575  0.78766  1.0000
  H   H50       1.0  0.11752  0.15639  0.94434  1.0000
  H   H51       1.0  0.86899  0.87251  0.05614  1.0000
  H   H52       1.0  0.38553  0.77458  0.83303  1.0000
  H   H53       1.0  0.61119  0.21618  0.16485  1.0000
  H   H54       1.0  0.57273  0.79123  0.79870  1.0000
  H   H55       1.0  0.05392  0.21807  0.44609  1.0000
  H   H56       1.0  0.87770  0.69983  0.66409  1.0000
  C   C1        1.0  0.99901  0.05326  0.88063  1.0000
  C   C2        1.0  0.98792  0.97414  0.11955  1.0000
  C   C3        1.0  0.92377  0.93478  0.03274  1.0000
  C   C4        1.0  0.06288  0.09338  0.96760  1.0000
  C   C5        1.0  0.92849  0.97137  0.91201  1.0000
  C   C6        1.0  0.05893  0.05494  0.08852  1.0000
  C   C7        1.0  0.55261  0.20145  0.16662  1.0000
  C   C8        1.0  0.44438  0.79106  0.83045  1.0000
  C   C9        1.0  0.44998  0.71024  0.79090  1.0000
  C   C10       1.0  0.52087  0.71787  0.78346  1.0000
  C   C11       1.0  0.86928  0.90832  0.73715  1.0000
  C   C12       1.0  0.12435  0.09830  0.27379  1.0000
  C   C13       1.0  0.16008  0.53263  0.38392  1.0000
  C   C14       1.0  0.84238  0.47304  0.60437  1.0000
  C   C15       1.0  0.61591  0.79848  0.25183  1.0000
  C   C16       1.0  0.38963  0.19645  0.75170  1.0000
  C   C17       1.0  0.60815  0.71977  0.37412  1.0000
  C   C18       1.0  0.39532  0.27521  0.62948  1.0000
  C   C19       1.0  0.53013  0.69248  0.40096  1.0000
  C   C20       1.0  0.47302  0.30437  0.60019  1.0000
  C   C21       1.0  0.67582  0.77089  0.46901  1.0000
  C   C22       1.0  0.75207  0.80133  0.46071  1.0000
  C   C23       1.0  0.81453  0.84696  0.54715  1.0000
  C   C24       1.0  0.80316  0.86360  0.64599  1.0000
  C   C25       1.0  0.72723  0.83465  0.65414  1.0000
  C   C26       1.0  0.66519  0.78963  0.56711  1.0000
  C   C27       1.0  0.60816  0.61433  0.36618  1.0000
  C   C28       1.0  0.39477  0.38004  0.63773  1.0000
  C   C29       1.0  0.46188  0.63912  0.30667  1.0000
  C   C30       1.0  0.54184  0.35791  0.69445  1.0000
  C   C31       1.0  0.38396  0.60982  0.33239  1.0000
  C   C32       1.0  0.61947  0.38762  0.66712  1.0000
  C   C33       1.0  0.23639  0.55792  0.36866  1.0000
  C   C34       1.0  0.76628  0.44348  0.62411  1.0000
  C   C35       1.0  0.30383  0.60665  0.44847  1.0000
  C   C36       1.0  0.69802  0.39145  0.54765  1.0000
  C   C37       1.0  0.37614  0.63185  0.43056  1.0000
  C   C38       1.0  0.62618  0.36419  0.56899  1.0000
  C   C39       1.0  0.47203  0.72023  0.18619  1.0000
  C   C40       1.0  0.53316  0.27808  0.81586  1.0000
  C   C41       1.0  0.46470  0.53504  0.30109  1.0000
  C   C42       1.0  0.53861  0.46150  0.70102  1.0000
  C   C43       1.0  0.54806  0.64147  0.14921  1.0000
  C   C44       1.0  0.45532  0.35402  0.85332  1.0000
  C   C45       1.0  0.31604  0.55964  0.25380  1.0000
  C   C46       1.0  0.68818  0.43933  0.74363  1.0000
  C   C47       1.0  0.24360  0.53407  0.27120  1.0000
  C   C48       1.0  0.76012  0.46655  0.72302  1.0000
  C   C49       1.0  0.54088  0.55988  0.27002  1.0000
  C   C50       1.0  0.46225  0.43556  0.73256  1.0000
  C   C51       1.0  0.54839  0.74609  0.15643  1.0000
  C   C52       1.0  0.45666  0.25049  0.84632  1.0000
  C   C53       1.0  0.38747  0.52997  0.74777  1.0000
  C   C54       1.0  0.38312  0.61559  0.76997  1.0000
  C   C55       1.0  0.45840  0.53519  0.74422  1.0000
  C   C56       1.0  0.52459  0.63197  0.76055  1.0000
  N   N1        1.0  0.49123  0.12171  0.12846  1.0000
  N   N2        1.0  0.50525  0.87127  0.86857  1.0000
  N   N3        1.0  0.14940  0.54604  0.47563  1.0000
  N   N4        1.0  0.85290  0.46469  0.50947  1.0000
  N   N5        1.0  0.86226  0.92485  0.83007  1.0000
  N   N6        1.0  0.12710  0.09860  0.16920  1.0000
  C   C57       1.0  0.03735  0.46587  0.60991  1.0000
  C   C58       1.0  0.06993  0.51171  0.50880  1.0000
  C  Sn1       1.0  0.02969  0.54950  0.40130  1.0000
  C  Sn2       1.0  0.95547  0.54117  0.39519  1.0000
  C   C59       1.0  0.92340  0.49526  0.49687  1.0000
  C   C60       1.0  0.96416  0.45766  0.60398  1.0000
  H   H57       1.0  0.06890  0.43683  0.69281  1.0000
  O  Te1       1.0  0.06308  0.59504  0.30112  1.0000
  O  Te2       1.0  0.91400  0.57834  0.28889  1.0000
  H   H58       1.0  0.93894  0.42225  0.68227  1.0000
  Mg  Mg1       1.0  0.98389  0.63409  0.17660  1.0000
  C   C61       1.0  0.41800  0.95828  0.01065  1.0000
  C   C62       1.0  0.13611  0.05553  0.03476  1.0000
  C  Sn3       1.0  0.20977  0.08222  0.02016  1.0000
  C  Sn4       1.0  0.34834  0.81688  0.98064  1.0000
  C   C63       1.0  0.62981  0.71983  0.95667  1.0000
  C   C64       1.0  0.55636  0.69391  0.97163  1.0000
  H   H59       1.0  0.36115  0.93825  0.02215  1.0000
  O  Te3       1.0  0.27068  0.17968  0.04469  1.0000
  O  Te4       1.0  0.42136  0.84156  0.96524  1.0000
  H   H60       1.0  0.50866  0.61864  0.95288  1.0000
  Mg  Mg2       1.0  0.35954  0.17724  0.01023  1.0000
  C   C65       1.0  0.19412  0.14949  0.50117  1.0000
  C   C66       1.0  0.18987  0.14356  0.38694  1.0000
  C  Sn5       1.0  0.25717  0.17550  0.34732  1.0000
  C  Sn6       1.0  0.33000  0.21402  0.42369  1.0000
  C   C67       1.0  0.33364  0.21957  0.53783  1.0000
  C   C68       1.0  0.26593  0.18743  0.57656  1.0000
  H   H61       1.0  0.14174  0.12457  0.53117  1.0000
  O  Te5       1.0  0.25188  0.16909  0.23292  1.0000
  O  Te6       1.0  0.39818  0.24643  0.38636  1.0000
  H   H62       1.0  0.26924  0.19196  0.66503  1.0000
  Mg  Mg3       1.0  0.36109  0.22270  0.22264  1.0000
  C   C69       1.0  0.06667  0.91718  0.96009  1.0000
  C   C70       1.0  0.13138  0.93193  0.92502  1.0000
  C  Sn7       1.0  0.20416  0.96744  0.99821  1.0000
  C  Sn8       1.0  0.08557  0.18166  0.10852  1.0000
  C   C71       1.0  0.02046  0.16657  0.14284  1.0000
  C   C72       1.0  0.94791  0.13104  0.06890  1.0000
  H   H63       1.0  0.01052  0.88963  0.90292  1.0000
  O  Te7       1.0  0.26821  0.98181  0.96179  1.0000
  O  Te8       1.0  0.15762  0.21718  0.18340  1.0000
  H   H64       1.0  0.89781  0.11956  0.09611  1.0000
  Mg  Mg4       1.0  0.22769  0.22472  0.09464  1.0000
  C   C73       1.0  0.62553  0.44892  0.25384  1.0000
  C   C74       1.0  0.56141  0.46395  0.25150  1.0000
  C  Sn9       1.0  0.48705  0.38207  0.23080  1.0000
  C  Sn10      1.0  0.47688  0.28339  0.21217  1.0000
  C   C75       1.0  0.54141  0.26911  0.21477  1.0000
  C   C76       1.0  0.61556  0.35159  0.23552  1.0000
  H   H65       1.0  0.68290  0.51270  0.26996  1.0000
  O  Te9       1.0  0.42361  0.39844  0.22871  1.0000
  O  Te10      1.0  0.40321  0.20019  0.19134  1.0000
  H   H66       1.0  0.66520  0.33990  0.23741  1.0000
  Mg  Mg5       1.0  0.33479  0.26101  0.19685  1.0000
