data_image0
_chemical_formula_structural       H36C26N6SnCSn2CSnTe4Mg2SnCSn2CSnTe4Mg2SnCSn2CSnTe4Mg2SnCSn2CSnTe4Mg2SnCSn2CSnTe4Mg2SnCSn2CSnTe4Mg2SnCSn2CSnTe4Mg2SnCSn2CSnTe4Mg2SnCSn2CSnTe4Mg2SnCSn2CSnTe4Mg2
_chemical_formula_sum              "H36 C46 N6 Sn40 Te40 Mg20"
_cell_length_a       20.1213
_cell_length_b       14.3895
_cell_length_c       12.2042
_cell_angle_alpha    70.8533
_cell_angle_beta     108.545
_cell_angle_gamma    118.706

_symmetry_space_group_name_H-M    'P1'
_space_group_IT_number       1

loop_
  _space_group_symop_operation_xyz
  'x, y, z'

loop_
  _atom_site_type_symbol
  _atom_site_label
  _atom_site_symmetry_multiplicity
  _atom_site_fract_x
  _atom_site_fract_y
  _atom_site_fract_z
  _atom_site_occupancy
  H   H1        1.0  0.45088  0.19454  0.93236  1.0000
  H   H2        1.0  0.55463  0.80236  0.07046  1.0000
  H   H3        1.0  0.92590  0.92468  0.72395  1.0000
  H   H4        1.0  0.06935  0.06877  0.30164  1.0000
  H   H5        1.0  0.11137  0.49989  0.31314  1.0000
  H   H6        1.0  0.89143  0.50483  0.67517  1.0000
  H   H7        1.0  0.67105  0.81948  0.22987  1.0000
  H   H8        1.0  0.33432  0.17167  0.77546  1.0000
  H   H9        1.0  0.61681  0.87443  0.25570  1.0000
  H   H10       1.0  0.39116  0.12245  0.74691  1.0000
  H   H11       1.0  0.52930  0.76719  0.40495  1.0000
  H   H12       1.0  0.47408  0.23069  0.59357  1.0000
  H   H13       1.0  0.52354  0.63807  0.48829  1.0000
  H   H14       1.0  0.47920  0.36032  0.51361  1.0000
  H   H15       1.0  0.60459  0.55749  0.45242  1.0000
  H   H16       1.0  0.39713  0.43632  0.55109  1.0000
  H   H17       1.0  0.66374  0.63466  0.34652  1.0000
  H   H18       1.0  0.33938  0.35858  0.65885  1.0000
  H   H19       1.0  0.47070  0.79441  0.19092  1.0000
  H   H20       1.0  0.53577  0.20435  0.81274  1.0000
  H   H21       1.0  0.42347  0.68568  0.11649  1.0000
  H   H22       1.0  0.58176  0.31490  0.88437  1.0000
  H   H23       1.0  0.41538  0.49577  0.23517  1.0000
  H   H24       1.0  0.58773  0.50041  0.76746  1.0000
  H   H25       1.0  0.45734  0.47782  0.38678  1.0000
  H   H26       1.0  0.54597  0.51949  0.61582  1.0000
  H   H27       1.0  0.49940  0.60391  0.08102  1.0000
  H   H28       1.0  0.50309  0.39181  0.92226  1.0000
  H   H29       1.0  0.60102  0.65915  0.12284  1.0000
  H   H30       1.0  0.40159  0.33468  0.87863  1.0000
  H   H31       1.0  0.01697  0.21973  0.43637  1.0000
  H   H32       1.0  0.91715  0.70492  0.68768  1.0000
  H   H33       1.0  0.38553  0.77458  0.83303  1.0000
  H   H34       1.0  0.61119  0.21618  0.16485  1.0000
  H   H35       1.0  0.05392  0.21807  0.44609  1.0000
  H   H36       1.0  0.87770  0.69983  0.66409  1.0000
  C   C1        1.0  0.55261  0.20145  0.16662  1.0000
  C   C2        1.0  0.44438  0.79106  0.83045  1.0000
  C   C3        1.0  0.86928  0.90832  0.73715  1.0000
  C   C4        1.0  0.12435  0.09830  0.27379  1.0000
  C   C5        1.0  0.16008  0.53263  0.38392  1.0000
  C   C6        1.0  0.84238  0.47304  0.60437  1.0000
  C   C7        1.0  0.61591  0.79848  0.25183  1.0000
  C   C8        1.0  0.38963  0.19645  0.75170  1.0000
  C   C9        1.0  0.60815  0.71977  0.37412  1.0000
  C   C10       1.0  0.39532  0.27521  0.62948  1.0000
  C   C11       1.0  0.53013  0.69248  0.40096  1.0000
  C   C12       1.0  0.47302  0.30437  0.60019  1.0000
  C   C13       1.0  0.60816  0.61433  0.36618  1.0000
  C   C14       1.0  0.39477  0.38004  0.63773  1.0000
  C   C15       1.0  0.46188  0.63912  0.30667  1.0000
  C   C16       1.0  0.54184  0.35791  0.69445  1.0000
  C   C17       1.0  0.47203  0.72023  0.18619  1.0000
  C   C18       1.0  0.53316  0.27808  0.81586  1.0000
  C   C19       1.0  0.46470  0.53504  0.30109  1.0000
  C   C20       1.0  0.53861  0.46150  0.70102  1.0000
  C   C21       1.0  0.54806  0.64147  0.14921  1.0000
  C   C22       1.0  0.45532  0.35402  0.85332  1.0000
  C   C23       1.0  0.54088  0.55988  0.27002  1.0000
  C   C24       1.0  0.46225  0.43556  0.73256  1.0000
  C   C25       1.0  0.54839  0.74609  0.15643  1.0000
  C   C26       1.0  0.45666  0.25049  0.84632  1.0000
  N   N1        1.0  0.49123  0.12171  0.12846  1.0000
  N   N2        1.0  0.50525  0.87127  0.86857  1.0000
  N   N3        1.0  0.14940  0.54604  0.47563  1.0000
  N   N4        1.0  0.85290  0.46469  0.50947  1.0000
  N   N5        1.0  0.86226  0.92485  0.83007  1.0000
  N   N6        1.0  0.12710  0.09860  0.16920  1.0000
  C  Sn1       1.0  0.02826  0.43852  0.59109  1.0000
  C   C27       1.0  0.06253  0.49459  0.49172  1.0000
  C  Sn2       1.0  0.03076  0.55658  0.39642  1.0000
  C  Sn3       1.0  0.96335  0.56272  0.40055  1.0000
  C   C28       1.0  0.92912  0.50668  0.49988  1.0000
  C  Sn4       1.0  0.96084  0.44465  0.59522  1.0000
  O  Te1       1.0  0.06101  0.37704  0.68534  1.0000
  O  Te2       1.0  0.06605  0.61190  0.29802  1.0000
  O  Te3       1.0  0.93061  0.62426  0.30618  1.0000
  O  Te4       1.0  0.92560  0.38938  0.69358  1.0000
  Mg  Mg1       1.0  0.99978  0.68502  0.19176  1.0000
  Mg  Mg2       1.0  0.99184  0.31628  0.79991  1.0000
  C  Sn5       1.0  0.04604  0.11311  0.94171  1.0000
  C   C29       1.0  0.92533  0.27403  0.06431  1.0000
  C  Sn6       1.0  0.86913  0.17748  0.11402  1.0000
  C  Sn7       1.0  0.80581  0.11175  0.03965  1.0000
  C   C30       1.0  0.92656  0.95082  0.91714  1.0000
  C  Sn8       1.0  0.98272  0.04738  0.86734  1.0000
  O  Te5       1.0  0.10289  0.20995  0.89394  1.0000
  O  Te6       1.0  0.87619  0.14694  0.23684  1.0000
  O  Te7       1.0  0.74894  0.01484  0.08754  1.0000
  O  Te8       1.0  0.97569  0.07791  0.74461  1.0000
  Mg  Mg3       1.0  0.78404  0.00787  0.25989  1.0000
  Mg  Mg4       1.0  0.06782  0.21692  0.72147  1.0000
  C  Sn9       1.0  0.42973  0.95010  0.04850  1.0000
  C   C31       1.0  0.14698  0.05140  0.06022  1.0000
  C  Sn10      1.0  0.21300  0.08798  0.01496  1.0000
  C  Sn11      1.0  0.34497  0.82878  0.95670  1.0000
  C   C32       1.0  0.62774  0.72756  0.94499  1.0000
  C  Sn12      1.0  0.56170  0.69090  0.99024  1.0000
  O  Te9       1.0  0.36427  0.91517  0.09442  1.0000
  O  Te10      1.0  0.27298  0.18953  0.02779  1.0000
  O  Te11      1.0  0.41050  0.86380  0.91077  1.0000
  O  Te12      1.0  0.50174  0.58942  0.97742  1.0000
  Mg  Mg5       1.0  0.47686  0.00826  0.95026  1.0000
  Mg  Mg6       1.0  0.29782  0.77064  0.05486  1.0000
  C  Sn13      1.0  0.58444  0.10224  0.01876  1.0000
  C   C33       1.0  0.51959  0.09294  0.04845  1.0000
  C  Sn14      1.0  0.57193  0.83953  0.99184  1.0000
  C  Sn15      1.0  0.90582  0.78745  0.90377  1.0000
  C   C34       1.0  0.97064  0.79674  0.87414  1.0000
  C  Sn16      1.0  0.70139  0.85697  0.93069  1.0000
  O  Te13      1.0  0.65807  0.16285  0.07650  1.0000
  O  Te14      1.0  0.38143  0.02462  0.02300  1.0000
  O  Te15      1.0  0.83211  0.72680  0.84602  1.0000
  O  Te16      1.0  0.76531  0.86506  0.89959  1.0000
  Mg  Mg7       1.0  0.76296  0.73970  0.91929  1.0000
  Mg  Mg8       1.0  0.72729  0.14991  0.00328  1.0000
  C  Sn17      1.0  0.46919  0.30732  0.17994  1.0000
  C   C35       1.0  0.53396  0.29660  0.17679  1.0000
  C  Sn18      1.0  0.60788  0.36465  0.22610  1.0000
  C  Sn19      1.0  0.61725  0.44506  0.27974  1.0000
  C   C36       1.0  0.55250  0.45574  0.28289  1.0000
  C  Sn20      1.0  0.47856  0.38772  0.23358  1.0000
  O  Te17      1.0  0.39584  0.23839  0.13010  1.0000
  O  Te18      1.0  0.67177  0.35241  0.22184  1.0000
  O  Te19      1.0  0.69068  0.51400  0.32959  1.0000
  O  Te20      1.0  0.41470  0.39992  0.23784  1.0000
  Mg  Mg9       1.0  0.75984  0.46567  0.30189  1.0000
  Mg  Mg10      1.0  0.32660  0.28667  0.15787  1.0000
  C  Sn21      1.0  0.38200  0.58063  0.79987  1.0000
  C   C37       1.0  0.44149  0.68156  0.81663  1.0000
  C  Sn22      1.0  0.51225  0.71711  0.78544  1.0000
  C  Sn23      1.0  0.52379  0.65043  0.73641  1.0000
  C   C38       1.0  0.46432  0.54958  0.71965  1.0000
  C  Sn24      1.0  0.39354  0.51395  0.75083  1.0000
  O  Te21      1.0  0.31172  0.54673  0.83167  1.0000
  O  Te22      1.0  0.57087  0.81832  0.80307  1.0000
  O  Te23      1.0  0.59414  0.68443  0.70461  1.0000
  O  Te24      1.0  0.33494  0.41282  0.73321  1.0000
  Mg  Mg11      1.0  0.65633  0.82876  0.74565  1.0000
  Mg  Mg12      1.0  0.24944  0.40232  0.79054  1.0000
  C  Sn25      1.0  0.80651  0.86773  0.50638  1.0000
  C   C39       1.0  0.46218  0.88823  0.61010  1.0000
  C  Sn26      1.0  0.73709  0.84070  0.65229  1.0000
  C  Sn27      1.0  0.66791  0.77117  0.58954  1.0000
  C   C40       1.0  0.66878  0.75069  0.48590  1.0000
  C  Sn28      1.0  0.73734  0.79820  0.44363  1.0000
  O  Te25      1.0  0.53225  0.91612  0.46584  1.0000
  O  Te26      1.0  0.39419  0.86244  0.75617  1.0000
  O  Te27      1.0  0.59866  0.72278  0.63017  1.0000
  O  Te28      1.0  0.73678  0.77648  0.33984  1.0000
  Mg  Mg13      1.0  0.62884  0.77728  0.77591  1.0000
  Mg  Mg14      1.0  0.84558  0.86154  0.32005  1.0000
  C  Sn29      1.0  0.23325  0.14688  0.55685  1.0000
  C   C41       1.0  0.31102  0.19013  0.55043  1.0000
  C  Sn30      1.0  0.33245  0.21790  0.44188  1.0000
  C  Sn31      1.0  0.27495  0.20218  0.33754  1.0000
  C   C42       1.0  0.19723  0.15897  0.34399  1.0000
  C  Sn32      1.0  0.17574  0.13115  0.45252  1.0000
  O  Te29      1.0  0.21315  0.11969  0.66632  1.0000
  O  Te30      1.0  0.41058  0.26098  0.43769  1.0000
  O  Te31      1.0  0.29512  0.22940  0.22803  1.0000
  O  Te32      1.0  0.09767  0.08812  0.45674  1.0000
  Mg  Mg15      1.0  0.40910  0.28548  0.26770  1.0000
  Mg  Mg16      1.0  0.09909  0.06364  0.62665  1.0000
  C  Sn33      1.0  0.32322  0.64447  0.43267  1.0000
  C   C43       1.0  0.25088  0.59378  0.36435  1.0000
  C  Sn34      1.0  0.24287  0.53901  0.28202  1.0000
  C  Sn35      1.0  0.30854  0.53475  0.26771  1.0000
  C   C44       1.0  0.38082  0.58540  0.33601  1.0000
  C  Sn36      1.0  0.38889  0.64021  0.41835  1.0000
  O  Te33      1.0  0.32988  0.69876  0.51444  1.0000
  O  Te34      1.0  0.16995  0.48898  0.21472  1.0000
  O  Te35      1.0  0.30182  0.48040  0.18585  1.0000
  O  Te36      1.0  0.46175  0.69019  0.48565  1.0000
  Mg  Mg17      1.0  0.19032  0.42489  0.11491  1.0000
  Mg  Mg18      1.0  0.44144  0.75425  0.58552  1.0000
  C  Sn37      1.0  0.68121  0.41202  0.52554  1.0000
  C   C45       1.0  0.75402  0.46034  0.59409  1.0000
  C  Sn38      1.0  0.76108  0.46509  0.70997  1.0000
  C  Sn39      1.0  0.69396  0.42057  0.75838  1.0000
  C   C46       1.0  0.62120  0.37228  0.68986  1.0000
  C  Sn40      1.0  0.61409  0.36750  0.57396  1.0000
  O  Te37      1.0  0.67552  0.40817  0.40991  1.0000
  O  Te38      1.0  0.83449  0.51383  0.77676  1.0000
  O  Te39      1.0  0.69970  0.42446  0.87412  1.0000
  O  Te40      1.0  0.54073  0.31878  0.50719  1.0000
  Mg  Mg19      1.0  0.81238  0.49922  0.92998  1.0000
  Mg  Mg20      1.0  0.56277  0.33330  0.35399  1.0000
