data_image0
_chemical_formula_structural       H36C26N6C2Sn2C2HTe2HMgC2Sn2C2HTe2HMgC2Sn2C2HTe2HMgC2Sn2C2HTe2HMgC2Sn2C2HTe2HMgC2Sn2C2HTe2HMgC2Sn2C2HTe2HMgC2Sn2C2HTe2HMgC2Sn2C2HTe2HMgC2Sn2C2HTe2HMg
_chemical_formula_sum              "H56 C66 N6 Sn20 Te20 Mg10"
_cell_length_a       20.1213
_cell_length_b       14.3895
_cell_length_c       12.2042
_cell_angle_alpha    70.8533
_cell_angle_beta     108.545
_cell_angle_gamma    118.706

_symmetry_space_group_name_H-M    'P1'
_space_group_IT_number       1

loop_
  _space_group_symop_operation_xyz
  'x, y, z'

loop_
  _atom_site_type_symbol
  _atom_site_label
  _atom_site_symmetry_multiplicity
  _atom_site_fract_x
  _atom_site_fract_y
  _atom_site_fract_z
  _atom_site_occupancy
  H   H1        1.0  0.45088  0.19454  0.93236  1.0000
  H   H2        1.0  0.55463  0.80236  0.07046  1.0000
  H   H3        1.0  0.92590  0.92468  0.72395  1.0000
  H   H4        1.0  0.06935  0.06877  0.30164  1.0000
  H   H5        1.0  0.11137  0.49989  0.31314  1.0000
  H   H6        1.0  0.89143  0.50483  0.67517  1.0000
  H   H7        1.0  0.67105  0.81948  0.22987  1.0000
  H   H8        1.0  0.33432  0.17167  0.77546  1.0000
  H   H9        1.0  0.61681  0.87443  0.25570  1.0000
  H   H10       1.0  0.39116  0.12245  0.74691  1.0000
  H   H11       1.0  0.52930  0.76719  0.40495  1.0000
  H   H12       1.0  0.47408  0.23069  0.59357  1.0000
  H   H13       1.0  0.52354  0.63807  0.48829  1.0000
  H   H14       1.0  0.47920  0.36032  0.51361  1.0000
  H   H15       1.0  0.60459  0.55749  0.45242  1.0000
  H   H16       1.0  0.39713  0.43632  0.55109  1.0000
  H   H17       1.0  0.66374  0.63466  0.34652  1.0000
  H   H18       1.0  0.33938  0.35858  0.65885  1.0000
  H   H19       1.0  0.47070  0.79441  0.19092  1.0000
  H   H20       1.0  0.53577  0.20435  0.81274  1.0000
  H   H21       1.0  0.42347  0.68568  0.11649  1.0000
  H   H22       1.0  0.58176  0.31490  0.88437  1.0000
  H   H23       1.0  0.41538  0.49577  0.23517  1.0000
  H   H24       1.0  0.58773  0.50041  0.76746  1.0000
  H   H25       1.0  0.45734  0.47782  0.38678  1.0000
  H   H26       1.0  0.54597  0.51949  0.61582  1.0000
  H   H27       1.0  0.49940  0.60391  0.08102  1.0000
  H   H28       1.0  0.50309  0.39181  0.92226  1.0000
  H   H29       1.0  0.60102  0.65915  0.12284  1.0000
  H   H30       1.0  0.40159  0.33468  0.87863  1.0000
  H   H31       1.0  0.01697  0.21973  0.43637  1.0000
  H   H32       1.0  0.91715  0.70492  0.68768  1.0000
  H   H33       1.0  0.38553  0.77458  0.83303  1.0000
  H   H34       1.0  0.61119  0.21618  0.16485  1.0000
  H   H35       1.0  0.05392  0.21807  0.44609  1.0000
  H   H36       1.0  0.87770  0.69983  0.66409  1.0000
  C   C1        1.0  0.55261  0.20145  0.16662  1.0000
  C   C2        1.0  0.44438  0.79106  0.83045  1.0000
  C   C3        1.0  0.86928  0.90832  0.73715  1.0000
  C   C4        1.0  0.12435  0.09830  0.27379  1.0000
  C   C5        1.0  0.16008  0.53263  0.38392  1.0000
  C   C6        1.0  0.84238  0.47304  0.60437  1.0000
  C   C7        1.0  0.61591  0.79848  0.25183  1.0000
  C   C8        1.0  0.38963  0.19645  0.75170  1.0000
  C   C9        1.0  0.60815  0.71977  0.37412  1.0000
  C   C10       1.0  0.39532  0.27521  0.62948  1.0000
  C   C11       1.0  0.53013  0.69248  0.40096  1.0000
  C   C12       1.0  0.47302  0.30437  0.60019  1.0000
  C   C13       1.0  0.60816  0.61433  0.36618  1.0000
  C   C14       1.0  0.39477  0.38004  0.63773  1.0000
  C   C15       1.0  0.46188  0.63912  0.30667  1.0000
  C   C16       1.0  0.54184  0.35791  0.69445  1.0000
  C   C17       1.0  0.47203  0.72023  0.18619  1.0000
  C   C18       1.0  0.53316  0.27808  0.81586  1.0000
  C   C19       1.0  0.46470  0.53504  0.30109  1.0000
  C   C20       1.0  0.53861  0.46150  0.70102  1.0000
  C   C21       1.0  0.54806  0.64147  0.14921  1.0000
  C   C22       1.0  0.45532  0.35402  0.85332  1.0000
  C   C23       1.0  0.54088  0.55988  0.27002  1.0000
  C   C24       1.0  0.46225  0.43556  0.73256  1.0000
  C   C25       1.0  0.54839  0.74609  0.15643  1.0000
  C   C26       1.0  0.45666  0.25049  0.84632  1.0000
  N   N1        1.0  0.49123  0.12171  0.12846  1.0000
  N   N2        1.0  0.50525  0.87127  0.86857  1.0000
  N   N3        1.0  0.14940  0.54604  0.47563  1.0000
  N   N4        1.0  0.85290  0.46469  0.50947  1.0000
  N   N5        1.0  0.86226  0.92485  0.83007  1.0000
  N   N6        1.0  0.12710  0.09860  0.16920  1.0000
  C   C27       1.0  0.00514  0.55880  0.36807  1.0000
  C   C28       1.0  0.06525  0.54162  0.45528  1.0000
  C  Sn1       1.0  0.05377  0.48783  0.57054  1.0000
  C  Sn2       1.0  0.98066  0.45062  0.59874  1.0000
  C   C29       1.0  0.92087  0.46813  0.51084  1.0000
  C   C30       1.0  0.93301  0.52208  0.39579  1.0000
  H   H37       1.0  0.01450  0.60048  0.27904  1.0000
  O  Te1       1.0  0.11446  0.47138  0.65661  1.0000
  O  Te2       1.0  0.96760  0.39659  0.71322  1.0000
  H   H38       1.0  0.88643  0.53530  0.32827  1.0000
  Mg  Mg1       1.0  0.06834  0.39360  0.79992  1.0000
  C   C31       1.0  0.01914  0.07410  0.88819  1.0000
  C   C32       1.0  0.94664  0.98910  0.90075  1.0000
  C  Sn3       1.0  0.80212  0.12999  0.01303  1.0000
  C  Sn4       1.0  0.85789  0.16363  0.11445  1.0000
  C   C33       1.0  0.93023  0.24880  0.10094  1.0000
  C   C34       1.0  0.07416  0.10736  0.98817  1.0000
  H   H39       1.0  0.03258  0.11418  0.80094  1.0000
  O  Te3       1.0  0.72942  0.04518  0.02399  1.0000
  O  Te4       1.0  0.84144  0.11280  0.22771  1.0000
  H   H40       1.0  0.13028  0.17322  0.97847  1.0000
  Mg  Mg2       1.0  0.73432  0.00120  0.19709  1.0000
  C   C35       1.0  0.57688  0.03657  0.97979  1.0000
  C   C36       1.0  0.51843  0.93250  0.97457  1.0000
  C  Sn5       1.0  0.44515  0.90499  0.99144  1.0000
  C  Sn6       1.0  0.30374  0.17649  0.01391  1.0000
  C   C37       1.0  0.36259  0.28041  0.01887  1.0000
  C   C38       1.0  0.43571  0.30706  0.00190  1.0000
  H   H41       1.0  0.63345  0.05722  0.96659  1.0000
  O  Te5       1.0  0.73091  0.80063  0.98598  1.0000
  O  Te6       1.0  0.23102  0.15117  0.03105  1.0000
  H   H42       1.0  0.48095  0.38766  0.00587  1.0000
  Mg  Mg3       1.0  0.17115  0.99813  0.01525  1.0000
  C   C39       1.0  0.45177  0.21315  0.00336  1.0000
  C   C40       1.0  0.51541  0.97495  0.91659  1.0000
  C  Sn7       1.0  0.44150  0.95824  0.91923  1.0000
  C  Sn8       1.0  0.30401  0.18041  0.01053  1.0000
  C   C41       1.0  0.36733  0.22546  0.09688  1.0000
  C   C42       1.0  0.44103  0.24180  0.09342  1.0000
  H   H43       1.0  0.50880  0.22585  0.00066  1.0000
  O  Te7       1.0  0.37928  0.91315  0.83187  1.0000
  O  Te8       1.0  0.23078  0.16462  0.01526  1.0000
  H   H44       1.0  0.48973  0.27672  0.16057  1.0000
  Mg  Mg4       1.0  0.29063  0.90736  0.87620  1.0000
  C   C43       1.0  0.46504  0.33929  0.22481  1.0000
  C   C44       1.0  0.52568  0.43344  0.25862  1.0000
  C  Sn9       1.0  0.60194  0.45582  0.26217  1.0000
  C  Sn10      1.0  0.61759  0.38246  0.23122  1.0000
  C   C45       1.0  0.55651  0.28853  0.19743  1.0000
  C   C46       1.0  0.48042  0.26691  0.19422  1.0000
  H   H45       1.0  0.40616  0.32258  0.22226  1.0000
  O  Te9       1.0  0.66184  0.55024  0.29619  1.0000
  O  Te10      1.0  0.69326  0.40286  0.23395  1.0000
  H   H46       1.0  0.43348  0.19404  0.16797  1.0000
  Mg  Mg5       1.0  0.75529  0.54237  0.28618  1.0000
  C   C47       1.0  0.53322  0.70550  0.78225  1.0000
  C   C48       1.0  0.46824  0.71729  0.78237  1.0000
  C  Sn11      1.0  0.39483  0.63244  0.76610  1.0000
  C  Sn12      1.0  0.38651  0.53404  0.74946  1.0000
  C   C49       1.0  0.45189  0.52303  0.74957  1.0000
  C   C50       1.0  0.52507  0.60847  0.76589  1.0000
  H   H47       1.0  0.58985  0.77158  0.79494  1.0000
  O  Te11      1.0  0.33051  0.64559  0.76642  1.0000
  O  Te12      1.0  0.31382  0.44792  0.73305  1.0000
  H   H48       1.0  0.57538  0.59929  0.76587  1.0000
  Mg  Mg6       1.0  0.24361  0.50492  0.74048  1.0000
  C   C51       1.0  0.77351  0.81537  0.47020  1.0000
  C   C52       1.0  0.69448  0.77330  0.46777  1.0000
  C  Sn13      1.0  0.66883  0.78164  0.55644  1.0000
  C  Sn14      1.0  0.72345  0.83312  0.64914  1.0000
  C   C53       1.0  0.45890  0.87501  0.65074  1.0000
  C   C54       1.0  0.82742  0.86619  0.56158  1.0000
  H   H49       1.0  0.79289  0.80860  0.40119  1.0000
  O  Te13      1.0  0.58967  0.73914  0.55269  1.0000
  O  Te14      1.0  0.69940  0.84260  0.73887  1.0000
  H   H50       1.0  0.54512  0.89882  0.56344  1.0000
  Mg  Mg7       1.0  0.58535  0.77191  0.69509  1.0000
  C   C55       1.0  0.29000  0.19074  0.35109  1.0000
  C   C56       1.0  0.21186  0.14359  0.35703  1.0000
  C  Sn15      1.0  0.18973  0.14075  0.45602  1.0000
  C  Sn16      1.0  0.24701  0.18605  0.55068  1.0000
  C   C57       1.0  0.32503  0.23311  0.54385  1.0000
  C   C58       1.0  0.34653  0.23548  0.44439  1.0000
  H   H51       1.0  0.30664  0.19264  0.27412  1.0000
  O  Te15      1.0  0.11141  0.09329  0.46053  1.0000
  O  Te16      1.0  0.22650  0.18434  0.65064  1.0000
  H   H52       1.0  0.40703  0.27206  0.43979  1.0000
  Mg  Mg8       1.0  0.11228  0.11060  0.61551  1.0000
  C   C59       1.0  0.36453  0.63460  0.44699  1.0000
  C   C60       1.0  0.38355  0.61054  0.36215  1.0000
  C  Sn17      1.0  0.32590  0.56162  0.27248  1.0000
  C  Sn18      1.0  0.24782  0.53645  0.26788  1.0000
  C   C61       1.0  0.22940  0.56091  0.35313  1.0000
  C   C62       1.0  0.28754  0.60983  0.44249  1.0000
  H   H53       1.0  0.40951  0.67251  0.51610  1.0000
  O  Te17      1.0  0.34591  0.53810  0.18844  1.0000
  O  Te18      1.0  0.18907  0.48758  0.17919  1.0000
  H   H54       1.0  0.27280  0.62852  0.50812  1.0000
  Mg  Mg9       1.0  0.24526  0.47131  0.08480  1.0000
  C   C63       1.0  0.70954  0.44910  0.75467  1.0000
  C   C64       1.0  0.63637  0.40546  0.68486  1.0000
  C  Sn19      1.0  0.62779  0.37493  0.58193  1.0000
  C  Sn20      1.0  0.69381  0.38840  0.54853  1.0000
  C   C65       1.0  0.76675  0.43206  0.61902  1.0000
  C   C66       1.0  0.77468  0.46238  0.72182  1.0000
  H   H55       1.0  0.71567  0.47250  0.83424  1.0000
  O  Te19      1.0  0.55427  0.33150  0.51317  1.0000
  O  Te20      1.0  0.68688  0.35853  0.44613  1.0000
  H   H56       1.0  0.83133  0.49610  0.77589  1.0000
  Mg  Mg10      1.0  0.57445  0.30300  0.38148  1.0000
