data_image0
_chemical_formula_structural       H48C80N8SnCSn2CSnTe4Mg2SnCSn2CSnTe4Mg2SnCSn2CSnTe4Mg2SnCSn2CSnTe4Mg2SnCSn2CSnTe4Mg2SnCSn2CSnTe4Mg2SnCSn2CSnTe4Mg2SnCSn2CSnTe4Mg2
_chemical_formula_sum              "H48 C96 N8 Sn32 Te32 Mg16"
_cell_length_a       17.2894
_cell_length_b       24.7052
_cell_length_c       10.1888
_cell_angle_alpha    89.8727
_cell_angle_beta     105.048
_cell_angle_gamma    90.0281

_symmetry_space_group_name_H-M    'P1'
_space_group_IT_number       1

loop_
  _space_group_symop_operation_xyz
  'x, y, z'

loop_
  _atom_site_type_symbol
  _atom_site_label
  _atom_site_symmetry_multiplicity
  _atom_site_fract_x
  _atom_site_fract_y
  _atom_site_fract_z
  _atom_site_occupancy
  H   H1        1.0  0.34710  0.57175  0.37972  1.0000
  H   H2        1.0  0.33403  0.42934  0.34179  1.0000
  H   H3        1.0  0.26365  0.65488  0.36819  1.0000
  H   H4        1.0  0.25232  0.34552  0.31653  1.0000
  H   H5        1.0  0.37566  0.72331  0.07524  1.0000
  H   H6        1.0  0.39377  0.27639  0.06897  1.0000
  H   H7        1.0  0.46134  0.64224  0.09167  1.0000
  H   H8        1.0  0.47536  0.35924  0.09395  1.0000
  H   H9        1.0  0.72847  0.22900  0.38314  1.0000
  H   H10       1.0  0.28787  0.22389  0.11456  1.0000
  H   H11       1.0  0.26549  0.76952  0.12324  1.0000
  H   H12       1.0  0.73886  0.77007  0.40191  1.0000
  H   H13       1.0  0.14528  0.07244  0.09960  1.0000
  H   H14       1.0  0.84305  0.93318  0.36796  1.0000
  H   H15       1.0  0.16306  0.93136  0.13971  1.0000
  H   H16       1.0  0.22564  0.15360  0.09728  1.0000
  H   H17       1.0  0.75925  0.85197  0.36197  1.0000
  H   H18       1.0  0.24784  0.85043  0.15993  1.0000
  H   H19       1.0  0.12899  0.22468  0.40690  1.0000
  H   H20       1.0  0.87715  0.77564  0.08783  1.0000
  H   H21       1.0  0.12234  0.77796  0.42899  1.0000
  H   H22       1.0  0.04943  0.14163  0.41175  1.0000
  H   H23       1.0  0.96084  0.85765  0.09213  1.0000
  H   H24       1.0  0.03670  0.86007  0.40903  1.0000
  H   H25       1.0  0.35531  0.50048  0.21478  1.0000
  H   H26       1.0  0.64739  0.50248  0.28049  1.0000
  H   H27       1.0  0.85423  0.00105  0.20937  1.0000
  H   H28       1.0  0.14553  0.00136  0.27421  1.0000
  H   H29       1.0  0.34991  0.57270  0.88732  1.0000
  H   H30       1.0  0.27121  0.65778  0.87926  1.0000
  H   H31       1.0  0.38409  0.72365  0.58507  1.0000
  H   H32       1.0  0.46193  0.63944  0.59153  1.0000
  H   H33       1.0  0.71843  0.22460  0.88264  1.0000
  H   H34       1.0  0.25179  0.23568  0.59212  1.0000
  H   H35       1.0  0.29342  0.77765  0.65837  1.0000
  H   H36       1.0  0.73455  0.76727  0.88811  1.0000
  H   H37       1.0  0.83941  0.92796  0.86553  1.0000
  H   H38       1.0  0.14328  0.92317  0.60882  1.0000
  H   H39       1.0  0.75827  0.84573  0.85498  1.0000
  H   H40       1.0  0.22652  0.84252  0.62263  1.0000
  H   H41       1.0  0.88637  0.77144  0.59251  1.0000
  H   H42       1.0  0.13548  0.78149  0.94998  1.0000
  H   H43       1.0  0.96603  0.85546  0.59862  1.0000
  H   H44       1.0  0.05018  0.86303  0.93385  1.0000
  H   H45       1.0  0.35449  0.50054  0.73006  1.0000
  H   H46       1.0  0.64447  0.49685  0.77461  1.0000
  H   H47       1.0  0.85254  0.99745  0.72190  1.0000
  H   H48       1.0  0.14278  0.99982  0.76934  1.0000
  C   C1        1.0  0.54279  0.55176  0.25894  1.0000
  C   C2        1.0  0.45899  0.55117  0.24451  1.0000
  C   C3        1.0  0.45989  0.45094  0.23872  1.0000
  C   C4        1.0  0.54406  0.45174  0.25626  1.0000
  C   C5        1.0  0.41034  0.60105  0.23675  1.0000
  C   C6        1.0  0.41176  0.40056  0.22130  1.0000
  C   C7        1.0  0.35311  0.60508  0.31294  1.0000
  C   C8        1.0  0.34694  0.39602  0.28111  1.0000
  C   C9        1.0  0.30671  0.65141  0.30750  1.0000
  C   C10       1.0  0.30126  0.34917  0.26818  1.0000
  C   C11       1.0  0.31494  0.69502  0.22297  1.0000
  C   C12       1.0  0.31848  0.30474  0.19411  1.0000
  C   C13       1.0  0.37045  0.69050  0.14399  1.0000
  C   C14       1.0  0.38131  0.30967  0.13038  1.0000
  C   C15       1.0  0.41836  0.64475  0.15261  1.0000
  C   C16       1.0  0.42719  0.35658  0.14414  1.0000
  C   C17       1.0  0.72960  0.25556  0.29674  1.0000
  C   C18       1.0  0.27456  0.25384  0.18536  1.0000
  C   C19       1.0  0.26793  0.74463  0.21398  1.0000
  C   C20       1.0  0.73506  0.74547  0.31059  1.0000
  C   C21       1.0  0.04175  0.05132  0.24976  1.0000
  C   C22       1.0  0.95789  0.05156  0.23620  1.0000
  C   C23       1.0  0.95828  0.95101  0.23968  1.0000
  C   C24       1.0  0.04233  0.95099  0.25525  1.0000
  C   C25       1.0  0.09092  0.10084  0.25529  1.0000
  C   C26       1.0  0.90926  0.90132  0.23261  1.0000
  C   C27       1.0  0.09216  0.90148  0.27044  1.0000
  C   C28       1.0  0.14284  0.10524  0.16962  1.0000
  C   C29       1.0  0.85055  0.89871  0.30600  1.0000
  C   C30       1.0  0.15388  0.89788  0.20369  1.0000
  C   C31       1.0  0.18833  0.15157  0.16816  1.0000
  C   C32       1.0  0.80371  0.85272  0.30358  1.0000
  C   C33       1.0  0.20142  0.85188  0.21422  1.0000
  C   C34       1.0  0.18347  0.19577  0.25296  1.0000
  C   C35       1.0  0.81427  0.80710  0.22721  1.0000
  C   C36       1.0  0.18867  0.80706  0.29192  1.0000
  C   C37       1.0  0.13267  0.19085  0.34058  1.0000
  C   C38       1.0  0.87085  0.81034  0.14978  1.0000
  C   C39       1.0  0.12966  0.81157  0.36412  1.0000
  C   C40       1.0  0.08772  0.14430  0.34253  1.0000
  C   C41       1.0  0.91771  0.85632  0.15297  1.0000
  C   C42       1.0  0.08208  0.85762  0.35278  1.0000
  C   C43       1.0  0.42019  0.50082  0.23385  1.0000
  C   C44       1.0  0.58262  0.50202  0.26370  1.0000
  C   C45       1.0  0.91915  0.00121  0.22929  1.0000
  C   C46       1.0  0.08081  0.00121  0.25826  1.0000
  C   C47       1.0  0.54257  0.54832  0.75755  1.0000
  C   C48       1.0  0.45918  0.54941  0.74800  1.0000
  C   C49       1.0  0.45619  0.44936  0.74356  1.0000
  C   C50       1.0  0.53947  0.44830  0.75380  1.0000
  C   C51       1.0  0.41213  0.59997  0.74066  1.0000
  C   C52       1.0  0.35647  0.60551  0.81952  1.0000
  C   C53       1.0  0.31281  0.65292  0.81634  1.0000
  C   C54       1.0  0.32327  0.69656  0.73361  1.0000
  C   C55       1.0  0.37728  0.69066  0.65224  1.0000
  C   C56       1.0  0.42083  0.64321  0.65557  1.0000
  C   C57       1.0  0.72609  0.25241  0.80255  1.0000
  C   C58       1.0  0.25781  0.25850  0.68699  1.0000
  C   C59       1.0  0.28046  0.74755  0.72937  1.0000
  C   C60       1.0  0.73682  0.74040  0.80331  1.0000
  C   C61       1.0  0.03805  0.04934  0.74744  1.0000
  C   C62       1.0  0.95475  0.04814  0.73844  1.0000
  C   C63       1.0  0.95717  0.94806  0.74372  1.0000
  C   C64       1.0  0.04075  0.94913  0.75617  1.0000
  C   C65       1.0  0.91004  0.89762  0.73545  1.0000
  C   C66       1.0  0.09104  0.89977  0.77095  1.0000
  C   C67       1.0  0.84958  0.89381  0.80481  1.0000
  C   C68       1.0  0.14301  0.89289  0.68641  1.0000
  C   C69       1.0  0.80423  0.84705  0.79976  1.0000
  C   C70       1.0  0.19028  0.84691  0.69461  1.0000
  C   C71       1.0  0.81835  0.80165  0.72568  1.0000
  C   C72       1.0  0.18827  0.80575  0.78975  1.0000
  C   C73       1.0  0.87700  0.80595  0.65266  1.0000
  C   C74       1.0  0.13712  0.81298  0.87585  1.0000
  C   C75       1.0  0.92193  0.85296  0.65741  1.0000
  C   C76       1.0  0.08932  0.85891  0.86642  1.0000
  C   C77       1.0  0.41886  0.49981  0.74232  1.0000
  C   C78       1.0  0.57989  0.49782  0.75985  1.0000
  C   C79       1.0  0.91709  0.99780  0.73618  1.0000
  C   C80       1.0  0.07825  0.99949  0.75597  1.0000
  N   N1        1.0  0.77059  0.75869  0.21786  1.0000
  N   N2        1.0  0.23165  0.75809  0.30533  1.0000
  N   N3        1.0  0.22486  0.24514  0.25882  1.0000
  N   N4        1.0  0.76910  0.24379  0.20876  1.0000
  N   N5        1.0  0.77679  0.75227  0.71582  1.0000
  N   N6        1.0  0.23101  0.75661  0.80300  1.0000
  N   N7        1.0  0.22395  0.24336  0.78034  1.0000
  N   N8        1.0  0.77021  0.24147  0.72099  1.0000
  C  Sn1       1.0  0.81955  0.14224  0.32603  1.0000
  C   C81       1.0  0.82201  0.19088  0.25694  1.0000
  C  Sn2       1.0  0.86467  0.19440  0.15809  1.0000
  C  Sn3       1.0  0.90570  0.14833  0.12760  1.0000
  C   C82       1.0  0.90322  0.09973  0.19665  1.0000
  C  Sn4       1.0  0.86058  0.09617  0.29554  1.0000
  O  Te1       1.0  0.77652  0.13964  0.42446  1.0000
  O  Te2       1.0  0.86628  0.24347  0.09040  1.0000
  O  Te3       1.0  0.94875  0.15096  0.02908  1.0000
  O  Te4       1.0  0.85895  0.04714  0.36319  1.0000
  Mg  Mg1       1.0  0.08607  0.22592  0.96453  1.0000
  Mg  Mg2       1.0  0.79215  0.06376  0.48902  1.0000
  C  Sn5       1.0  0.91363  0.15664  0.65212  1.0000
  C   C83       1.0  0.92076  0.11146  0.73722  1.0000
  C  Sn6       1.0  0.86662  0.10332  0.81604  1.0000
  C  Sn7       1.0  0.80400  0.14110  0.80961  1.0000
  C   C84       1.0  0.79687  0.18624  0.72453  1.0000
  C  Sn8       1.0  0.85100  0.19442  0.64569  1.0000
  O  Te5       1.0  0.96843  0.16397  0.57422  1.0000
  O  Te6       1.0  0.87499  0.05786  0.90039  1.0000
  O  Te7       1.0  0.74918  0.13374  0.88761  1.0000
  O  Te8       1.0  0.84265  0.23984  0.56136  1.0000
  Mg  Mg3       1.0  0.78544  0.06556  0.98690  1.0000
  Mg  Mg4       1.0  0.93213  0.23217  0.47476  1.0000
  C  Sn9       1.0  0.67512  0.64374  0.66865  1.0000
  C   C85       1.0  0.67699  0.68845  0.75320  1.0000
  C  Sn10      1.0  0.64108  0.68583  0.86106  1.0000
  C  Sn11      1.0  0.60253  0.63749  0.88496  1.0000
  C   C86       1.0  0.60068  0.59281  0.80046  1.0000
  C  Sn12      1.0  0.63657  0.59540  0.69256  1.0000
  O  Te9       1.0  0.71141  0.64727  0.56143  1.0000
  O  Te10      1.0  0.64370  0.73106  0.94418  1.0000
  O  Te11      1.0  0.56622  0.63399  0.99229  1.0000
  O  Te12      1.0  0.63396  0.55020  0.60949  1.0000
  Mg  Mg5       1.0  0.43268  0.70725  0.07731  1.0000
  Mg  Mg6       1.0  0.69199  0.57482  0.47637  1.0000
  C  Sn13      1.0  0.17028  0.14416  0.65181  1.0000
  C   C87       1.0  0.16766  0.19151  0.72531  1.0000
  C  Sn14      1.0  0.12716  0.19239  0.82740  1.0000
  C  Sn15      1.0  0.08851  0.14493  0.85672  1.0000
  C   C88       1.0  0.09115  0.09761  0.78326  1.0000
  C  Sn16      1.0  0.13164  0.09670  0.68113  1.0000
  O  Te13      1.0  0.21113  0.14421  0.55019  1.0000
  O  Te14      1.0  0.12534  0.24022  0.89947  1.0000
  O  Te15      1.0  0.04764  0.14491  0.95843  1.0000
  O  Te16      1.0  0.13348  0.04891  0.60910  1.0000
  Mg  Mg7       1.0  0.90906  0.22077  0.02850  1.0000
  Mg  Mg8       1.0  0.19676  0.06916  0.48011  1.0000
  C  Sn17      1.0  0.59430  0.31065  0.83899  1.0000
  C   C89       1.0  0.65543  0.29860  0.77697  1.0000
  C  Sn18      1.0  0.68934  0.33945  0.71487  1.0000
  C  Sn19      1.0  0.66161  0.39347  0.71485  1.0000
  C   C90       1.0  0.60053  0.40550  0.77686  1.0000
  C  Sn20      1.0  0.56657  0.36468  0.83897  1.0000
  O  Te17      1.0  0.56127  0.26918  0.90046  1.0000
  O  Te18      1.0  0.75036  0.32641  0.65348  1.0000
  O  Te19      1.0  0.69470  0.43495  0.65330  1.0000
  O  Te20      1.0  0.50559  0.37769  0.90035  1.0000
  Mg  Mg9       1.0  0.77642  0.39699  0.58306  1.0000
  Mg  Mg10      1.0  0.47952  0.30715  0.97086  1.0000
  C  Sn21      1.0  0.57782  0.66085  0.35187  1.0000
  C   C91       1.0  0.57485  0.61732  0.26332  1.0000
  C  Sn22      1.0  0.63565  0.60984  0.19774  1.0000
  C  Sn23      1.0  0.70082  0.64660  0.22122  1.0000
  C   C92       1.0  0.70378  0.69009  0.30974  1.0000
  C  Sn24      1.0  0.64299  0.69761  0.37535  1.0000
  O  Te21      1.0  0.51637  0.66754  0.41633  1.0000
  O  Te22      1.0  0.63135  0.56603  0.10962  1.0000
  O  Te23      1.0  0.76229  0.63987  0.15666  1.0000
  O  Te24      1.0  0.64727  0.74138  0.46343  1.0000
  Mg  Mg11      1.0  0.72960  0.57402  0.04579  1.0000
  Mg  Mg12      1.0  0.54909  0.73341  0.52737  1.0000
  C  Sn25      1.0  0.37863  0.35971  0.59080  1.0000
  C   C93       1.0  0.39013  0.39977  0.69063  1.0000
  C  Sn26      1.0  0.36352  0.39181  0.80749  1.0000
  C  Sn27      1.0  0.32465  0.34278  0.82499  1.0000
  C   C94       1.0  0.31318  0.30274  0.72521  1.0000
  C  Sn28      1.0  0.33976  0.31067  0.60830  1.0000
  O  Te25      1.0  0.40572  0.36853  0.47479  1.0000
  O  Te26      1.0  0.37567  0.43247  0.90586  1.0000
  O  Te27      1.0  0.29755  0.33398  0.94112  1.0000
  O  Te28      1.0  0.32764  0.27005  0.50998  1.0000
  Mg  Mg13      1.0  0.17506  0.40229  0.04633  1.0000
  Mg  Mg14      1.0  0.37525  0.30103  0.36951  1.0000
  C  Sn29      1.0  0.64255  0.37974  0.15723  1.0000
  C   C95       1.0  0.58933  0.39438  0.23345  1.0000
  C  Sn30      1.0  0.58898  0.36634  0.35250  1.0000
  C  Sn31      1.0  0.64297  0.32278  0.39634  1.0000
  C   C96       1.0  0.69616  0.30816  0.32016  1.0000
  C  Sn32      1.0  0.69654  0.33617  0.20107  1.0000
  O  Te29      1.0  0.64186  0.40834  0.03855  1.0000
  O  Te30      1.0  0.53521  0.38172  0.42697  1.0000
  O  Te31      1.0  0.64362  0.29418  0.51513  1.0000
  O  Te32      1.0  0.75028  0.32083  0.12664  1.0000
  Mg  Mg15      1.0  0.55905  0.33037  0.58175  1.0000
  Mg  Mg16      1.0  0.87953  0.37129  0.97189  1.0000
