data_image0
_chemical_formula_structural       H24C48N12SnCSn2CSnTe4Mg2SnCSn2CSnTe4Mg2SnCSn2CSnTe4Mg2SnCSn2CSnTe4Mg2SnCSn2CSnTe4Mg2SnCSn2CSnTe4Mg2SnCSn2CSnTe4Mg2SnCSn2CSnTe4Mg2SnCSn2CSnTe4Mg2SnCSn2CSnTe4Mg2SnCSn2CSnTe4Mg2SnCSn2CSnTe4Mg2SnCSn2CSnTe4Mg2SnCSn2CSnTe4Mg2SnCSn2CSnTe4Mg2SnCSn2CSnTe4Mg2SnCSn2CSnTe4Mg2SnCSn2CSnTe4Mg2SnCSn2CSnTe4Mg2SnCSn2CSnTe4Mg2SnCSn2CSnTe4Mg2SnCSn2CSnTe4Mg2SnCSn2CSnTe4Mg2SnCSn2CSnTe4Mg2
_chemical_formula_sum              "H24 C96 N12 Sn96 Te96 Mg48"
_cell_length_a       30.0867
_cell_length_b       30.0711
_cell_length_c       8.98068
_cell_angle_alpha    91.5843
_cell_angle_beta     88.1734
_cell_angle_gamma    120.056

_symmetry_space_group_name_H-M    'P1'
_space_group_IT_number       1

loop_
  _space_group_symop_operation_xyz
  'x, y, z'

loop_
  _atom_site_type_symbol
  _atom_site_label
  _atom_site_symmetry_multiplicity
  _atom_site_fract_x
  _atom_site_fract_y
  _atom_site_fract_z
  _atom_site_occupancy
  H   H1        1.0  0.42292  0.00660  0.25615  1.0000
  H   H2        1.0  0.99453  0.41529  0.23773  1.0000
  H   H3        1.0  0.58610  0.57988  0.27335  1.0000
  H   H4        1.0  0.57810  0.99190  0.24204  1.0000
  H   H5        1.0  0.00663  0.58387  0.24553  1.0000
  H   H6        1.0  0.41796  0.42179  0.26282  1.0000
  H   H7        1.0  0.73009  0.26157  0.32676  1.0000
  H   H8        1.0  0.74125  0.47252  0.32951  1.0000
  H   H9        1.0  0.53543  0.27090  0.35265  1.0000
  H   H10       1.0  0.27013  0.73792  0.33770  1.0000
  H   H11       1.0  0.26498  0.53650  0.30377  1.0000
  H   H12       1.0  0.48758  0.74072  0.38683  1.0000
  H   H13       1.0  0.42338  0.00708  0.75583  1.0000
  H   H14       1.0  0.99268  0.41811  0.73632  1.0000
  H   H15       1.0  0.58112  0.57647  0.73308  1.0000
  H   H16       1.0  0.57899  0.99360  0.74725  1.0000
  H   H17       1.0  0.00558  0.58711  0.74348  1.0000
  H   H18       1.0  0.41313  0.41951  0.74814  1.0000
  H   H19       1.0  0.72968  0.26349  0.81625  1.0000
  H   H20       1.0  0.73669  0.46961  0.81870  1.0000
  H   H21       1.0  0.53150  0.27010  0.85161  1.0000
  H   H22       1.0  0.26864  0.73929  0.83050  1.0000
  H   H23       1.0  0.25857  0.52917  0.82278  1.0000
  H   H24       1.0  0.46843  0.73056  0.83747  1.0000
  C   C1        1.0  0.55026  0.04489  0.24886  1.0000
  C   C2        1.0  0.95476  0.50309  0.23870  1.0000
  C   C3        1.0  0.49906  0.45174  0.26470  1.0000
  C   C4        1.0  0.45083  0.95374  0.25281  1.0000
  C   C5        1.0  0.04666  0.49626  0.24114  1.0000
  C   C6        1.0  0.50519  0.54973  0.26363  1.0000
  C   C7        1.0  0.50508  0.04890  0.25275  1.0000
  C   C8        1.0  0.95121  0.45406  0.23876  1.0000
  C   C9        1.0  0.54776  0.49759  0.26787  1.0000
  C   C10       1.0  0.49603  0.94981  0.24824  1.0000
  C   C11       1.0  0.04999  0.54526  0.24567  1.0000
  C   C12       1.0  0.45630  0.50408  0.26130  1.0000
  C   C13       1.0  0.45733  0.00333  0.25347  1.0000
  C   C14       1.0  0.99726  0.45275  0.23885  1.0000
  C   C15       1.0  0.54890  0.54481  0.27044  1.0000
  C   C16       1.0  0.54377  0.99533  0.24557  1.0000
  C   C17       1.0  0.00401  0.54647  0.24330  1.0000
  C   C18       1.0  0.45519  0.45684  0.26399  1.0000
  C   C19       1.0  0.76251  0.25861  0.27720  1.0000
  C   C20       1.0  0.74263  0.50410  0.26637  1.0000
  C   C21       1.0  0.50347  0.24019  0.28947  1.0000
  C   C22       1.0  0.23793  0.74078  0.29330  1.0000
  C   C23       1.0  0.26208  0.50040  0.26139  1.0000
  C   C24       1.0  0.50423  0.76243  0.28343  1.0000
  C   C25       1.0  0.55079  0.04617  0.75092  1.0000
  C   C26       1.0  0.95328  0.50618  0.73787  1.0000
  C   C27       1.0  0.49419  0.44900  0.74836  1.0000
  C   C28       1.0  0.45151  0.95454  0.75403  1.0000
  C   C29       1.0  0.04490  0.49898  0.74131  1.0000
  C   C30       1.0  0.50020  0.54736  0.73706  1.0000
  C   C31       1.0  0.50541  0.04992  0.75460  1.0000
  C   C32       1.0  0.94965  0.45711  0.73634  1.0000
  C   C33       1.0  0.54302  0.49486  0.74467  1.0000
  C   C34       1.0  0.49688  0.95079  0.75206  1.0000
  C   C35       1.0  0.04839  0.54798  0.74418  1.0000
  C   C36       1.0  0.45136  0.50150  0.74271  1.0000
  C   C37       1.0  0.45792  0.00407  0.75449  1.0000
  C   C38       1.0  0.99551  0.45561  0.73773  1.0000
  C   C39       1.0  0.54375  0.54173  0.73761  1.0000
  C   C40       1.0  0.54444  0.99663  0.74965  1.0000
  C   C41       1.0  0.00261  0.54954  0.74161  1.0000
  C   C42       1.0  0.45050  0.45442  0.74651  1.0000
  C   C43       1.0  0.76223  0.26081  0.76672  1.0000
  C   C44       1.0  0.73924  0.50388  0.76881  1.0000
  C   C45       1.0  0.49796  0.23808  0.79762  1.0000
  C   C46       1.0  0.23696  0.74256  0.78425  1.0000
  C   C47       1.0  0.25598  0.49512  0.76537  1.0000
  C   C48       1.0  0.50086  0.76100  0.77417  1.0000
  N   N1        1.0  0.75641  0.21451  0.23550  1.0000
  N   N2        1.0  0.78478  0.53776  0.20250  1.0000
  N   N3        1.0  0.46976  0.24820  0.22986  1.0000
  N   N4        1.0  0.24438  0.78472  0.25470  1.0000
  N   N5        1.0  0.21822  0.46221  0.22322  1.0000
  N   N6        1.0  0.52187  0.74508  0.17832  1.0000
  N   N7        1.0  0.75637  0.21681  0.72456  1.0000
  N   N8        1.0  0.78275  0.54053  0.72000  1.0000
  N   N9        1.0  0.46172  0.24433  0.74813  1.0000
  N   N10       1.0  0.24418  0.78662  0.74384  1.0000
  N   N11       1.0  0.21299  0.46002  0.71183  1.0000
  N   N12       1.0  0.53521  0.75269  0.71078  1.0000
  C  Sn1       1.0  0.65112  0.10173  0.36644  1.0000
  C   C49       1.0  0.60878  0.09619  0.29039  1.0000
  C  Sn2       1.0  0.61574  0.12747  0.16955  1.0000
  C  Sn3       1.0  0.66606  0.16506  0.12369  1.0000
  C   C50       1.0  0.70837  0.17059  0.19970  1.0000
  C  Sn4       1.0  0.70144  0.13933  0.32058  1.0000
  O  Te1       1.0  0.64326  0.07004  0.48694  1.0000
  O  Te2       1.0  0.57282  0.12122  0.09530  1.0000
  O  Te3       1.0  0.67389  0.19677  0.00309  1.0000
  O  Te4       1.0  0.74433  0.14556  0.39479  1.0000
  Mg  Mg1       1.0  0.59611  0.17822  0.93758  1.0000
  Mg  Mg2       1.0  0.71391  0.09322  0.55247  1.0000
  C  Sn5       1.0  0.89651  0.54965  0.34408  1.0000
  C   C51       1.0  0.90292  0.51096  0.27498  1.0000
  C  Sn6       1.0  0.87290  0.48320  0.15395  1.0000
  C  Sn7       1.0  0.83572  0.49437  0.10079  1.0000
  C   C52       1.0  0.82933  0.53305  0.16986  1.0000
  C  Sn8       1.0  0.85933  0.56082  0.29093  1.0000
  O  Te5       1.0  0.92695  0.57691  0.46491  1.0000
  O  Te6       1.0  0.87999  0.44469  0.08672  1.0000
  O  Te7       1.0  0.79809  0.47173  0.97986  1.0000
  O  Te8       1.0  0.85226  0.59932  0.35812  1.0000
  Mg  Mg3       1.0  0.82208  0.42288  0.92550  1.0000
  Mg  Mg4       1.0  0.90298  0.62582  0.51928  1.0000
  C  Sn9       1.0  0.51488  0.37474  0.12051  1.0000
  C   C53       1.0  0.48751  0.39239  0.20815  1.0000
  C  Sn10      1.0  0.45584  0.36297  0.32587  1.0000
  C  Sn11      1.0  0.45147  0.31492  0.35672  1.0000
  C   C54       1.0  0.47884  0.29729  0.26914  1.0000
  C  Sn12      1.0  0.51050  0.32668  0.15136  1.0000
  O  Te9       1.0  0.54631  0.40479  0.00339  1.0000
  O  Te10      1.0  0.42884  0.38142  0.41189  1.0000
  O  Te11      1.0  0.42000  0.28487  0.47395  1.0000
  O  Te12      1.0  0.53750  0.30826  0.06539  1.0000
  Mg  Mg5       1.0  0.39097  0.32649  0.55935  1.0000
  Mg  Mg6       1.0  0.56822  0.36782  0.91797  1.0000
  C  Sn13      1.0  0.37130  0.86014  0.12803  1.0000
  C   C55       1.0  0.39115  0.90650  0.20792  1.0000
  C  Sn14      1.0  0.36289  0.91211  0.32593  1.0000
  C  Sn15      1.0  0.31376  0.87050  0.36498  1.0000
  C   C56       1.0  0.29394  0.82417  0.28514  1.0000
  C  Sn16      1.0  0.32218  0.81853  0.16708  1.0000
  O  Te13      1.0  0.40023  0.85539  0.01047  1.0000
  O  Te14      1.0  0.38353  0.95883  0.40412  1.0000
  O  Te15      1.0  0.28484  0.87528  0.48265  1.0000
  O  Te16      1.0  0.30157  0.77183  0.08894  1.0000
  Mg  Mg7       1.0  0.32943  0.94653  0.55557  1.0000
  Mg  Mg8       1.0  0.34846  0.78875  0.93752  1.0000
  C  Sn17      1.0  0.14067  0.51081  0.10710  1.0000
  C   C57       1.0  0.09427  0.48367  0.18671  1.0000
  C  Sn18      1.0  0.08930  0.45057  0.30031  1.0000
  C  Sn19      1.0  0.13159  0.44449  0.33515  1.0000
  C   C58       1.0  0.17795  0.47163  0.25560  1.0000
  C  Sn20      1.0  0.18296  0.50473  0.14195  1.0000
  O  Te17      1.0  0.13759  0.54835  0.99398  1.0000
  O  Te18      1.0  0.04253  0.42383  0.37830  1.0000
  O  Te19      1.0  0.12745  0.41157  0.44838  1.0000
  O  Te20      1.0  0.22969  0.53147  0.06400  1.0000
  Mg  Mg9       1.0  0.05586  0.38356  0.52288  1.0000
  Mg  Mg10      1.0  0.20923  0.57642  0.91947  1.0000
  C  Sn21      1.0  0.53427  0.65122  0.36729  1.0000
  C   C59       1.0  0.50829  0.60654  0.28045  1.0000
  C  Sn22      1.0  0.49198  0.60863  0.13824  1.0000
  C  Sn23      1.0  0.50186  0.65638  0.08159  1.0000
  C   C60       1.0  0.52783  0.70102  0.16839  1.0000
  C  Sn24      1.0  0.54416  0.69896  0.31063  1.0000
  O  Te21      1.0  0.55023  0.64823  0.50914  1.0000
  O  Te22      1.0  0.46606  0.56345  0.05353  1.0000
  O  Te23      1.0  0.47869  0.66399  0.93961  1.0000
  O  Te24      1.0  0.57007  0.74411  0.39531  1.0000
  Mg  Mg11      1.0  0.44481  0.59190  0.86673  1.0000
  Mg  Mg12      1.0  0.58417  0.72037  0.58208  1.0000
  C  Sn25      1.0  0.53088  0.14429  0.39582  1.0000
  C   C61       1.0  0.50097  0.10097  0.30727  1.0000
  C  Sn26      1.0  0.47319  0.10383  0.18985  1.0000
  C  Sn27      1.0  0.47537  0.15098  0.16025  1.0000
  C   C62       1.0  0.50526  0.19426  0.24875  1.0000
  C  Sn28      1.0  0.53306  0.19143  0.36622  1.0000
  O  Te25      1.0  0.55834  0.14055  0.51262  1.0000
  O  Te26      1.0  0.44355  0.06000  0.10290  1.0000
  O  Te27      1.0  0.44787  0.15468  0.04334  1.0000
  O  Te28      1.0  0.56269  0.23523  0.45312  1.0000
  Mg  Mg13      1.0  0.40583  0.08906  0.95635  1.0000
  Mg  Mg14      1.0  0.59326  0.21088  0.59964  1.0000
  C  Sn29      1.0  0.81738  0.36562  0.31022  1.0000
  C   C63       1.0  0.80692  0.31890  0.24365  1.0000
  C  Sn30      1.0  0.84675  0.31266  0.18235  1.0000
  C  Sn31      1.0  0.89810  0.35397  0.18778  1.0000
  C   C64       1.0  0.90854  0.40065  0.25434  1.0000
  C  Sn32      1.0  0.86873  0.40693  0.31564  1.0000
  O  Te29      1.0  0.77697  0.37099  0.37079  1.0000
  O  Te30      1.0  0.83535  0.26560  0.11635  1.0000
  O  Te31      1.0  0.93853  0.34856  0.12713  1.0000
  O  Te32      1.0  0.88012  0.45395  0.38164  1.0000
  Mg  Mg15      1.0  0.90357  0.27704  0.04928  1.0000
  Mg  Mg16      1.0  0.81193  0.44254  0.44880  1.0000
  C  Sn33      1.0  0.61861  0.47315  0.39296  1.0000
  C   C65       1.0  0.60420  0.50267  0.31148  1.0000
  C  Sn34      1.0  0.63462  0.53170  0.19141  1.0000
  C  Sn35      1.0  0.68038  0.53120  0.15187  1.0000
  C   C66       1.0  0.69477  0.50168  0.23330  1.0000
  C  Sn36      1.0  0.66438  0.47265  0.35342  1.0000
  O  Te33      1.0  0.58762  0.44443  0.51257  1.0000
  O  Te34      1.0  0.61942  0.56093  0.11166  1.0000
  O  Te35      1.0  0.71138  0.55996  0.03215  1.0000
  O  Te36      1.0  0.67954  0.44343  0.43313  1.0000
  Mg  Mg17      1.0  0.66727  0.59828  0.95764  1.0000
  Mg  Mg18      1.0  0.62453  0.41070  0.58711  1.0000
  C  Sn37      1.0  0.52328  0.87808  0.12365  1.0000
  C   C67       1.0  0.49360  0.89304  0.21100  1.0000
  C  Sn38      1.0  0.47057  0.86800  0.34416  1.0000
  C  Sn39      1.0  0.47738  0.82718  0.39104  1.0000
  C   C68       1.0  0.50705  0.81225  0.30373  1.0000
  C  Sn40      1.0  0.53008  0.83727  0.17053  1.0000
  O  Te37      1.0  0.53876  0.90832  0.99094  1.0000
  O  Te38      1.0  0.44106  0.88362  0.42958  1.0000
  O  Te39      1.0  0.45469  0.80161  0.52387  1.0000
  O  Te40      1.0  0.55959  0.82167  0.08515  1.0000
  Mg  Mg19      1.0  0.41801  0.83692  0.60173  1.0000
  Mg  Mg20      1.0  0.57550  0.87302  0.91304  1.0000
  C  Sn41      1.0  0.13086  0.68162  0.22590  1.0000
  C   C69       1.0  0.17502  0.69390  0.30439  1.0000
  C  Sn42      1.0  0.18383  0.65511  0.35120  1.0000
  C  Sn43      1.0  0.14776  0.60296  0.31881  1.0000
  C   C70       1.0  0.10363  0.59071  0.24034  1.0000
  C  Sn44      1.0  0.09478  0.62947  0.19351  1.0000
  O  Te41      1.0  0.12283  0.72102  0.18018  1.0000
  O  Te42      1.0  0.22826  0.66833  0.42956  1.0000
  O  Te43      1.0  0.15582  0.56355  0.36461  1.0000
  O  Te44      1.0  0.05039  0.61628  0.11517  1.0000
  Mg  Mg21      1.0  0.22209  0.60092  0.46809  1.0000
  Mg  Mg22      1.0  0.05654  0.68364  0.07652  1.0000
  C  Sn45      1.0  0.36849  0.55190  0.29799  1.0000
  C   C71       1.0  0.32274  0.51474  0.23353  1.0000
  C  Sn46      1.0  0.31657  0.46725  0.18757  1.0000
  C  Sn47      1.0  0.35697  0.45666  0.20651  1.0000
  C   C72       1.0  0.40269  0.49380  0.27096  1.0000
  C  Sn48      1.0  0.40889  0.54131  0.31694  1.0000
  O  Te45      1.0  0.37381  0.59911  0.34313  1.0000
  O  Te46      1.0  0.27048  0.43071  0.12336  1.0000
  O  Te47      1.0  0.35162  0.40940  0.16130  1.0000
  O  Te48      1.0  0.45494  0.57782  0.38113  1.0000
  Mg  Mg23      1.0  0.28161  0.37207  0.07976  1.0000
  Mg  Mg24      1.0  0.44385  0.63647  0.42484  1.0000
  C  Sn49      1.0  0.65160  0.17529  0.68570  1.0000
  C   C73       1.0  0.69544  0.18049  0.75162  1.0000
  C  Sn50      1.0  0.69541  0.13762  0.80777  1.0000
  C  Sn51      1.0  0.65062  0.08851  0.79774  1.0000
  C   C74       1.0  0.60682  0.08332  0.73183  1.0000
  C  Sn52      1.0  0.60682  0.12618  0.67567  1.0000
  O  Te49      1.0  0.65250  0.21868  0.63030  1.0000
  O  Te50      1.0  0.73970  0.14378  0.87324  1.0000
  O  Te51      1.0  0.64975  0.04510  0.85321  1.0000
  O  Te52      1.0  0.56256  0.12004  0.61021  1.0000
  Mg  Mg25      1.0  0.71957  0.07309  0.93239  1.0000
  Mg  Mg26      1.0  0.58265  0.19069  0.55095  1.0000
  C  Sn53      1.0  0.88530  0.57509  0.78601  1.0000
  C   C75       1.0  0.84100  0.54850  0.70166  1.0000
  C  Sn54      1.0  0.82747  0.50044  0.63902  1.0000
  C  Sn55      1.0  0.85886  0.47848  0.66123  1.0000
  C   C76       1.0  0.90312  0.50506  0.74555  1.0000
  C  Sn56      1.0  0.91669  0.55313  0.80822  1.0000
  O  Te53      1.0  0.89808  0.62309  0.84759  1.0000
  O  Te54      1.0  0.78301  0.47459  0.55508  1.0000
  O  Te55      1.0  0.84604  0.43044  0.59956  1.0000
  O  Te56      1.0  0.96111  0.57897  0.89213  1.0000
  Mg  Mg27      1.0  0.78173  0.41020  0.49402  1.0000
  Mg  Mg28      1.0  0.96241  0.64335  0.95330  1.0000
  C  Sn57      1.0  0.52436  0.34851  0.69357  1.0000
  C   C77       1.0  0.48598  0.30571  0.76860  1.0000
  C  Sn58      1.0  0.44271  0.30610  0.82815  1.0000
  C  Sn59      1.0  0.43768  0.35016  0.81230  1.0000
  C   C78       1.0  0.47604  0.39292  0.73730  1.0000
  C  Sn60      1.0  0.51933  0.39257  0.67773  1.0000
  O  Te57      1.0  0.56729  0.34727  0.63493  1.0000
  O  Te58      1.0  0.40486  0.26287  0.90273  1.0000
  O  Te59      1.0  0.39471  0.35137  0.87103  1.0000
  O  Te60      1.0  0.55716  0.43576  0.60316  1.0000
  Mg  Mg29      1.0  0.35350  0.28307  0.96314  1.0000
  Mg  Mg30      1.0  0.60853  0.41560  0.54265  1.0000
  C  Sn61      1.0  0.34881  0.89993  0.87317  1.0000
  C   C79       1.0  0.39202  0.90382  0.79822  1.0000
  C  Sn62      1.0  0.38641  0.87085  0.67858  1.0000
  C  Sn63      1.0  0.33657  0.83321  0.63282  1.0000
  C   C80       1.0  0.29340  0.82934  0.70772  1.0000
  C  Sn64      1.0  0.29897  0.86230  0.82740  1.0000
  O  Te61      1.0  0.35532  0.93330  0.99247  1.0000
  O  Te62      1.0  0.43018  0.87546  0.60542  1.0000
  O  Te63      1.0  0.33009  0.79983  0.51341  1.0000
  O  Te64      1.0  0.25523  0.85771  0.90053  1.0000
  Mg  Mg31      1.0  0.40146  0.82117  0.44910  1.0000
  Mg  Mg32      1.0  0.29109  0.90733  0.05680  1.0000
  C  Sn65      1.0  0.17445  0.52586  0.67471  1.0000
  C   C81       1.0  0.17786  0.48607  0.74014  1.0000
  C  Sn66      1.0  0.13394  0.44358  0.79808  1.0000
  C  Sn67      1.0  0.08558  0.44078  0.79038  1.0000
  C   C82       1.0  0.08219  0.48055  0.72497  1.0000
  C  Sn68      1.0  0.12610  0.52306  0.66702  1.0000
  O  Te65      1.0  0.21886  0.56797  0.61751  1.0000
  O  Te66      1.0  0.13831  0.40429  0.86300  1.0000
  O  Te67      1.0  0.04116  0.39862  0.84767  1.0000
  O  Te68      1.0  0.12174  0.56233  0.60211  1.0000
  Mg  Mg33      1.0  0.06678  0.35481  0.92523  1.0000
  Mg  Mg34      1.0  0.19324  0.61181  0.53977  1.0000
  C  Sn69      1.0  0.55077  0.65277  0.83089  1.0000
  C   C83       1.0  0.50966  0.60754  0.77449  1.0000
  C  Sn70      1.0  0.47795  0.60959  0.66786  1.0000
  C  Sn71      1.0  0.48755  0.65785  0.61645  1.0000
  C   C84       1.0  0.52864  0.70304  0.67282  1.0000
  C  Sn72      1.0  0.56037  0.70103  0.77947  1.0000
  O  Te69      1.0  0.58197  0.64980  0.93742  1.0000
  O  Te70      1.0  0.43707  0.56385  0.61317  1.0000
  O  Te71      1.0  0.45630  0.66078  0.50984  1.0000
  O  Te72      1.0  0.60123  0.74673  0.83413  1.0000
  Mg  Mg35      1.0  0.40541  0.58783  0.46908  1.0000
  Mg  Mg36      1.0  0.63293  0.72280  0.97816  1.0000
  C  Sn73      1.0  0.54951  0.18324  0.82929  1.0000
  C   C85       1.0  0.51411  0.19375  0.76510  1.0000
  C  Sn74      1.0  0.46873  0.15394  0.70617  1.0000
  C  Sn75      1.0  0.45849  0.10255  0.71159  1.0000
  C   C86       1.0  0.49387  0.09206  0.77578  1.0000
  C  Sn76      1.0  0.53928  0.13185  0.83472  1.0000
  O  Te73      1.0  0.59464  0.22363  0.88752  1.0000
  O  Te74      1.0  0.43393  0.16540  0.64251  1.0000
  O  Te75      1.0  0.41332  0.06215  0.65329  1.0000
  O  Te76      1.0  0.57406  0.12041  0.89836  1.0000
  Mg  Mg37      1.0  0.37783  0.09718  0.57813  1.0000
  Mg  Mg38      1.0  0.63016  0.18859  0.96284  1.0000
  C  Sn77      1.0  0.85263  0.38814  0.86812  1.0000
  C   C87       1.0  0.89750  0.40147  0.78481  1.0000
  C  Sn78      1.0  0.89776  0.36881  0.67153  1.0000
  C  Sn79      1.0  0.85222  0.32186  0.64081  1.0000
  C   C88       1.0  0.80738  0.30856  0.72407  1.0000
  C  Sn80      1.0  0.80709  0.34119  0.83739  1.0000
  O  Te77      1.0  0.85325  0.42137  0.98083  1.0000
  O  Te78      1.0  0.94310  0.38296  0.58979  1.0000
  O  Te79      1.0  0.85163  0.28863  0.52799  1.0000
  O  Te80      1.0  0.76179  0.32707  0.91909  1.0000
  Mg  Mg39      1.0  0.92296  0.32485  0.44744  1.0000
  Mg  Mg40      1.0  0.78906  0.38050  0.06140  1.0000
  C  Sn81      1.0  0.61326  0.47161  0.88317  1.0000
  C   C89       1.0  0.59987  0.50154  0.79975  1.0000
  C  Sn82      1.0  0.63182  0.53134  0.68301  1.0000
  C  Sn83      1.0  0.67811  0.53121  0.64885  1.0000
  C   C90       1.0  0.69147  0.50129  0.73222  1.0000
  C  Sn84      1.0  0.65954  0.47148  0.84902  1.0000
  O  Te81      1.0  0.58073  0.44211  0.99938  1.0000
  O  Te82      1.0  0.61763  0.56096  0.60123  1.0000
  O  Te83      1.0  0.71063  0.56075  0.53253  1.0000
  O  Te84      1.0  0.67371  0.44186  0.93075  1.0000
  Mg  Mg41      1.0  0.67464  0.59471  0.45340  1.0000
  Mg  Mg42      1.0  0.62390  0.40343  0.07854  1.0000
  C  Sn85      1.0  0.46962  0.85560  0.88784  1.0000
  C   C91       1.0  0.50080  0.89916  0.80316  1.0000
  C  Sn86      1.0  0.53143  0.89701  0.68617  1.0000
  C  Sn87      1.0  0.53085  0.85034  0.65306  1.0000
  C   C92       1.0  0.49968  0.80681  0.73768  1.0000
  C  Sn88      1.0  0.46905  0.80893  0.85472  1.0000
  O  Te85      1.0  0.44650  0.85397  0.00428  1.0000
  O  Te86      1.0  0.56230  0.94108  0.60313  1.0000
  O  Te87      1.0  0.56120  0.84734  0.53651  1.0000
  O  Te88      1.0  0.43818  0.76490  0.93772  1.0000
  Mg  Mg43      1.0  0.59678  0.91769  0.45549  1.0000
  Mg  Mg44      1.0  0.41086  0.78357  0.08533  1.0000
  C  Sn89      1.0  0.11791  0.64856  0.63507  1.0000
  C   C93       1.0  0.10497  0.60298  0.70760  1.0000
  C  Sn90      1.0  0.13230  0.60371  0.83136  1.0000
  C  Sn91      1.0  0.17342  0.65098  0.88380  1.0000
  C   C94       1.0  0.18634  0.69653  0.81131  1.0000
  C  Sn92      1.0  0.15902  0.69583  0.68751  1.0000
  O  Te89      1.0  0.09005  0.64692  0.51156  1.0000
  O  Te90      1.0  0.11866  0.55764  0.90199  1.0000
  O  Te91      1.0  0.20846  0.64793  0.00742  1.0000
  O  Te92      1.0  0.17264  0.74187  0.61691  1.0000
  Mg  Mg45      1.0  0.17530  0.57502  0.06598  1.0000
  Mg  Mg46      1.0  0.12320  0.71988  0.45297  1.0000
  C  Sn93      1.0  0.36067  0.54381  0.81718  1.0000
  C   C95       1.0  0.31600  0.50946  0.74233  1.0000
  C  Sn94      1.0  0.31136  0.46485  0.67560  1.0000
  C  Sn95      1.0  0.35219  0.45433  0.68393  1.0000
  C   C96       1.0  0.39682  0.48866  0.75876  1.0000
  C  Sn96      1.0  0.40150  0.53328  0.82550  1.0000
  O  Te93      1.0  0.36447  0.58817  0.88307  1.0000
  O  Te94      1.0  0.26634  0.43111  0.60135  1.0000
  O  Te95      1.0  0.34835  0.40993  0.61795  1.0000
  O  Te96      1.0  0.44648  0.56701  0.89973  1.0000
  Mg  Mg47      1.0  0.27939  0.37576  0.52942  1.0000
  Mg  Mg48      1.0  0.43347  0.62236  0.97177  1.0000
