data_image0
_chemical_formula_structural       H48C80N8C2Sn2C2HTe2HMgC2Sn2C2HTe2HMgC2Sn2C2HTe2HMgC2Sn2C2HTe2HMgC2Sn2C2HTe2HMgC2Sn2C2HTe2HMgC2Sn2C2HTe2HMgC2Sn2C2HTe2HMg
_chemical_formula_sum              "H64 C112 N8 Sn16 Te16 Mg8"
_cell_length_a       17.189
_cell_length_b       24.777
_cell_length_c       11.2871
_cell_angle_alpha    90.2933
_cell_angle_beta     117.742
_cell_angle_gamma    90.0285

_symmetry_space_group_name_H-M    'P1'
_space_group_IT_number       1

loop_
  _space_group_symop_operation_xyz
  'x, y, z'

loop_
  _atom_site_type_symbol
  _atom_site_label
  _atom_site_symmetry_multiplicity
  _atom_site_fract_x
  _atom_site_fract_y
  _atom_site_fract_z
  _atom_site_occupancy
  H   H1        1.0  0.63744  0.43247  0.13669  1.0000
  H   H2        1.0  0.72143  0.35158  0.14388  1.0000
  H   H3        1.0  0.64228  0.27717  0.41487  1.0000
  H   H4        1.0  0.55921  0.35960  0.41078  1.0000
  H   H5        1.0  0.93017  0.86262  0.08698  1.0000
  H   H6        1.0  0.84262  0.78027  0.06617  1.0000
  H   H7        1.0  0.77130  0.84450  0.35652  1.0000
  H   H8        1.0  0.85696  0.92814  0.37488  1.0000
  H   H9        1.0  0.74932  0.27277  0.12074  1.0000
  H   H10       1.0  0.75155  0.72774  0.12789  1.0000
  H   H11       1.0  0.23860  0.76755  0.12847  1.0000
  H   H12       1.0  0.24736  0.22994  0.12549  1.0000
  H   H13       1.0  0.34718  0.49973  0.23487  1.0000
  H   H14       1.0  0.84340  0.00026  0.21981  1.0000
  H   H15       1.0  0.64808  0.50235  0.28942  1.0000
  H   H16       1.0  0.14705  0.00158  0.28713  1.0000
  H   H17       1.0  0.64441  0.43068  0.65331  1.0000
  H   H18       1.0  0.11055  0.07452  0.60207  1.0000
  H   H19       1.0  0.13250  0.92931  0.62991  1.0000
  H   H20       1.0  0.73192  0.35000  0.67154  1.0000
  H   H21       1.0  0.19157  0.15661  0.60842  1.0000
  H   H22       1.0  0.21919  0.84884  0.64574  1.0000
  H   H23       1.0  0.63072  0.27348  0.91305  1.0000
  H   H24       1.0  0.13795  0.22263  0.91649  1.0000
  H   H25       1.0  0.13592  0.77668  0.91438  1.0000
  H   H26       1.0  0.54908  0.35676  0.90587  1.0000
  H   H27       1.0  0.05680  0.13891  0.91153  1.0000
  H   H28       1.0  0.05429  0.86032  0.90798  1.0000
  H   H29       1.0  0.43267  0.63679  0.59902  1.0000
  H   H30       1.0  0.43398  0.36048  0.59599  1.0000
  H   H31       1.0  0.92206  0.13590  0.58536  1.0000
  H   H32       1.0  0.34703  0.71954  0.57815  1.0000
  H   H33       1.0  0.34888  0.27715  0.57559  1.0000
  H   H34       1.0  0.83525  0.21793  0.56627  1.0000
  H   H35       1.0  0.27077  0.65696  0.86391  1.0000
  H   H36       1.0  0.26566  0.34247  0.85164  1.0000
  H   H37       1.0  0.76674  0.15461  0.86011  1.0000
  H   H38       1.0  0.35530  0.57314  0.88299  1.0000
  H   H39       1.0  0.35274  0.42612  0.87446  1.0000
  H   H40       1.0  0.85171  0.07139  0.87609  1.0000
  H   H41       1.0  0.74176  0.26976  0.62682  1.0000
  H   H42       1.0  0.73673  0.73049  0.62199  1.0000
  H   H43       1.0  0.25265  0.77168  0.63155  1.0000
  H   H44       1.0  0.26299  0.22260  0.64066  1.0000
  H   H45       1.0  0.34429  0.49911  0.73363  1.0000
  H   H46       1.0  0.84258  0.99715  0.73412  1.0000
  H   H47       1.0  0.64632  0.49996  0.79282  1.0000
  H   H48       1.0  0.13848  0.00185  0.76821  1.0000
  C   C1        1.0  0.53990  0.55160  0.26880  1.0000
  C   C2        1.0  0.54085  0.45161  0.26488  1.0000
  C   C3        1.0  0.03765  0.05123  0.25836  1.0000
  C   C4        1.0  0.03940  0.95103  0.26243  1.0000
  C   C5        1.0  0.45392  0.55063  0.25683  1.0000
  C   C6        1.0  0.45485  0.45084  0.25237  1.0000
  C   C7        1.0  0.95074  0.05072  0.24282  1.0000
  C   C8        1.0  0.95232  0.95080  0.24618  1.0000
  C   C9        1.0  0.59104  0.40213  0.27187  1.0000
  C   C10       1.0  0.90109  0.90102  0.23373  1.0000
  C   C11       1.0  0.63899  0.39871  0.19923  1.0000
  C   C12       1.0  0.68624  0.35262  0.20277  1.0000
  C   C13       1.0  0.68681  0.30760  0.27922  1.0000
  C   C14       1.0  0.64093  0.31169  0.35477  1.0000
  C   C15       1.0  0.59388  0.35782  0.35122  1.0000
  C   C16       1.0  0.89597  0.85876  0.14674  1.0000
  C   C17       1.0  0.84750  0.81228  0.13595  1.0000
  C   C18       1.0  0.80396  0.80623  0.21429  1.0000
  C   C19       1.0  0.80679  0.84902  0.29869  1.0000
  C   C20       1.0  0.85421  0.89565  0.30767  1.0000
  C   C21       1.0  0.75758  0.24595  0.20307  1.0000
  C   C22       1.0  0.75829  0.75589  0.20781  1.0000
  C   C23       1.0  0.25415  0.74264  0.21701  1.0000
  C   C24       1.0  0.25932  0.25632  0.21104  1.0000
  C   C25       1.0  0.41452  0.50032  0.25008  1.0000
  C   C26       1.0  0.91134  0.00060  0.23795  1.0000
  C   C27       1.0  0.58059  0.50192  0.27347  1.0000
  C   C28       1.0  0.07894  0.00128  0.26827  1.0000
  C   C29       1.0  0.53826  0.54947  0.76918  1.0000
  C   C30       1.0  0.53808  0.44945  0.76672  1.0000
  C   C31       1.0  0.03071  0.04986  0.75225  1.0000
  C   C32       1.0  0.03466  0.95016  0.75601  1.0000
  C   C33       1.0  0.45199  0.54923  0.75610  1.0000
  C   C34       1.0  0.45145  0.44924  0.75254  1.0000
  C   C35       1.0  0.94637  0.04887  0.74598  1.0000
  C   C36       1.0  0.95002  0.94924  0.74860  1.0000
  C   C37       1.0  0.58888  0.39986  0.77687  1.0000
  C   C38       1.0  0.07855  0.10024  0.75753  1.0000
  C   C39       1.0  0.08564  0.90076  0.76617  1.0000
  C   C40       1.0  0.40104  0.59907  0.74324  1.0000
  C   C41       1.0  0.39993  0.39928  0.73707  1.0000
  C   C42       1.0  0.89473  0.09815  0.73403  1.0000
  C   C43       1.0  0.64198  0.39669  0.71235  1.0000
  C   C44       1.0  0.11806  0.10638  0.67356  1.0000
  C   C45       1.0  0.13422  0.89639  0.69470  1.0000
  C   C46       1.0  0.69030  0.35056  0.72034  1.0000
  C   C47       1.0  0.16382  0.15318  0.67707  1.0000
  C   C48       1.0  0.18261  0.85033  0.70247  1.0000
  C   C49       1.0  0.68484  0.30477  0.78980  1.0000
  C   C50       1.0  0.17195  0.19590  0.76516  1.0000
  C   C51       1.0  0.18285  0.80599  0.78059  1.0000
  C   C52       1.0  0.63390  0.30844  0.85755  1.0000
  C   C53       1.0  0.13249  0.18955  0.84924  1.0000
  C   C54       1.0  0.13587  0.81092  0.85438  1.0000
  C   C55       1.0  0.58743  0.35506  0.85195  1.0000
  C   C56       1.0  0.08696  0.14265  0.84596  1.0000
  C   C57       1.0  0.08880  0.85738  0.84826  1.0000
  C   C58       1.0  0.39757  0.64102  0.65743  1.0000
  C   C59       1.0  0.39767  0.35661  0.65270  1.0000
  C   C60       1.0  0.88854  0.13991  0.64612  1.0000
  C   C61       1.0  0.34983  0.68772  0.64635  1.0000
  C   C62       1.0  0.35046  0.30961  0.64228  1.0000
  C   C63       1.0  0.84014  0.18621  0.63599  1.0000
  C   C64       1.0  0.30486  0.69435  0.72256  1.0000
  C   C65       1.0  0.30342  0.30380  0.71562  1.0000
  C   C66       1.0  0.79792  0.19266  0.71623  1.0000
  C   C67       1.0  0.30653  0.65203  0.80651  1.0000
  C   C68       1.0  0.30316  0.34703  0.79685  1.0000
  C   C69       1.0  0.80112  0.15014  0.80061  1.0000
  C   C70       1.0  0.35354  0.60518  0.81612  1.0000
  C   C71       1.0  0.35108  0.39367  0.80794  1.0000
  C   C72       1.0  0.84847  0.10364  0.80880  1.0000
  C   C73       1.0  0.75265  0.24299  0.71053  1.0000
  C   C74       1.0  0.75309  0.75579  0.71085  1.0000
  C   C75       1.0  0.25865  0.74478  0.71255  1.0000
  C   C76       1.0  0.25777  0.25324  0.70745  1.0000
  C   C77       1.0  0.41182  0.49915  0.74965  1.0000
  C   C78       1.0  0.90891  0.99847  0.74528  1.0000
  C   C79       1.0  0.57844  0.49957  0.77499  1.0000
  C   C80       1.0  0.07219  0.00061  0.75725  1.0000
  N   N1        1.0  0.23189  0.75693  0.30752  1.0000
  N   N2        1.0  0.23251  0.24421  0.29753  1.0000
  N   N3        1.0  0.72962  0.25831  0.28825  1.0000
  N   N4        1.0  0.72836  0.74530  0.29137  1.0000
  N   N5        1.0  0.22687  0.75683  0.79323  1.0000
  N   N6        1.0  0.21560  0.24514  0.77569  1.0000
  N   N7        1.0  0.72727  0.25542  0.79869  1.0000
  N   N8        1.0  0.73146  0.74236  0.80235  1.0000
  C   C81       1.0  0.18692  0.13491  0.20513  1.0000
  C   C82       1.0  0.18914  0.18479  0.26500  1.0000
  C  Sn1       1.0  0.14062  0.19276  0.33427  1.0000
  C  Sn2       1.0  0.08899  0.14992  0.34365  1.0000
  C   C83       1.0  0.08726  0.10016  0.28349  1.0000
  C   C84       1.0  0.13605  0.09263  0.21437  1.0000
  H   H49       1.0  0.22471  0.12907  0.15172  1.0000
  O  Te1       1.0  0.14355  0.24286  0.39346  1.0000
  O  Te2       1.0  0.03988  0.15678  0.41232  1.0000
  H   H50       1.0  0.13436  0.05399  0.16811  1.0000
  Mg  Mg1       1.0  0.06522  0.23249  0.47618  1.0000
  C   C85       1.0  0.81408  0.13972  0.31199  1.0000
  C   C86       1.0  0.80590  0.18640  0.23816  1.0000
  C  Sn3       1.0  0.84190  0.18851  0.14992  1.0000
  C  Sn4       1.0  0.88687  0.14297  0.13551  1.0000
  C   C87       1.0  0.89464  0.09645  0.20975  1.0000
  C   C88       1.0  0.85839  0.09478  0.29779  1.0000
  H   H51       1.0  0.78599  0.13841  0.38006  1.0000
  O  Te3       1.0  0.83316  0.23548  0.07697  1.0000
  O  Te4       1.0  0.92345  0.14398  0.04799  1.0000
  H   H52       1.0  0.86468  0.05862  0.35487  1.0000
  Mg  Mg2       1.0  0.19995  0.21968  0.97049  1.0000
  C   C89       1.0  0.68002  0.63432  0.70212  1.0000
  C   C90       1.0  0.68656  0.68327  0.76822  1.0000
  C  Sn5       1.0  0.64508  0.68975  0.84837  1.0000
  C  Sn6       1.0  0.59621  0.64634  0.86246  1.0000
  C   C91       1.0  0.59012  0.59751  0.79600  1.0000
  C   C92       1.0  0.63187  0.59147  0.71601  1.0000
  H   H53       1.0  0.71236  0.62963  0.64029  1.0000
  O  Te5       1.0  0.65225  0.73894  0.91366  1.0000
  O  Te6       1.0  0.55413  0.65171  0.94200  1.0000
  H   H54       1.0  0.62684  0.55355  0.66492  1.0000
  Mg  Mg3       1.0  0.27748  0.72417  0.01084  1.0000
  C   C93       1.0  0.84509  0.88507  0.83126  1.0000
  C   C94       1.0  0.89334  0.89769  0.76390  1.0000
  C  Sn7       1.0  0.89107  0.86340  0.66367  1.0000
  C  Sn8       1.0  0.83946  0.81563  0.63046  1.0000
  C   C95       1.0  0.79137  0.80339  0.69837  1.0000
  C   C96       1.0  0.79413  0.83797  0.79853  1.0000
  H   H55       1.0  0.84718  0.91184  0.90871  1.0000
  O  Te7       1.0  0.93970  0.87661  0.59741  1.0000
  O  Te8       1.0  0.83598  0.78066  0.53067  1.0000
  H   H56       1.0  0.75672  0.82821  0.85060  1.0000
  Mg  Mg4       1.0  0.91375  0.81615  0.46884  1.0000
  C   C97       1.0  0.38537  0.34688  0.12861  1.0000
  C   C98       1.0  0.40000  0.39214  0.21078  1.0000
  C  Sn9       1.0  0.36794  0.39350  0.30402  1.0000
  C  Sn10      1.0  0.32039  0.34864  0.31500  1.0000
  C   C99       1.0  0.30616  0.30353  0.23241  1.0000
  C   C100      1.0  0.33851  0.30261  0.13942  1.0000
  H   H57       1.0  0.41043  0.34614  0.05671  1.0000
  O  Te9       1.0  0.38311  0.43905  0.38529  1.0000
  O  Te10      1.0  0.28764  0.34892  0.40737  1.0000
  H   H58       1.0  0.32722  0.26754  0.07588  1.0000
  Mg  Mg5       1.0  0.32528  0.42027  0.49588  1.0000
  C   C101      1.0  0.35683  0.67904  0.13222  1.0000
  C   C102      1.0  0.30497  0.69040  0.19463  1.0000
  C  Sn11      1.0  0.30497  0.65559  0.29163  1.0000
  C  Sn12      1.0  0.35796  0.60858  0.32660  1.0000
  C   C103      1.0  0.40967  0.59760  0.26366  1.0000
  C   C104      1.0  0.40915  0.63270  0.16670  1.0000
  H   H59       1.0  0.35648  0.70621  0.05726  1.0000
  O  Te11      1.0  0.25274  0.66753  0.35296  1.0000
  O  Te12      1.0  0.35923  0.57311  0.42325  1.0000
  H   H60       1.0  0.44935  0.62391  0.11846  1.0000
  Mg  Mg6       1.0  0.27675  0.60682  0.47867  1.0000
  C   C105      1.0  0.61912  0.68711  0.36183  1.0000
  C   C106      1.0  0.67657  0.69550  0.30777  1.0000
  C  Sn13      1.0  0.68863  0.65523  0.23079  1.0000
  C  Sn14      1.0  0.64220  0.60570  0.20766  1.0000
  C   C107      1.0  0.58483  0.59772  0.26212  1.0000
  C   C108      1.0  0.57328  0.63827  0.33902  1.0000
  H   H61       1.0  0.61014  0.71850  0.42128  1.0000
  O  Te13      1.0  0.74630  0.66427  0.17757  1.0000
  O  Te14      1.0  0.65299  0.56478  0.13107  1.0000
  H   H62       1.0  0.52875  0.63178  0.38080  1.0000
  Mg  Mg7       1.0  0.73892  0.59624  0.07990  1.0000
  C   C109      1.0  0.16299  0.89105  0.20908  1.0000
  C   C110      1.0  0.10046  0.90000  0.25333  1.0000
  C  Sn15      1.0  0.08573  0.86115  0.33000  1.0000
  C  Sn16      1.0  0.13462  0.81249  0.36285  1.0000
  C   C111      1.0  0.19708  0.80394  0.31818  1.0000
  C   C112      1.0  0.21127  0.84308  0.24148  1.0000
  H   H63       1.0  0.17402  0.92135  0.14980  1.0000
  O  Te15      1.0  0.02298  0.87073  0.37335  1.0000
  O  Te16      1.0  0.12124  0.77299  0.43938  1.0000
  H   H64       1.0  0.25973  0.83615  0.20731  1.0000
  Mg  Mg8       1.0  0.02844  0.80470  0.47508  1.0000
