data_image0
_chemical_formula_structural       H48C80N8C2Sn2C2HTe2HMgC2Sn2C2HTe2HMgC2Sn2C2HTe2HMgC2Sn2C2HTe2HMgC2Sn2C2HTe2HMgC2Sn2C2HTe2HMgC2Sn2C2HTe2HMgC2Sn2C2HTe2HMg
_chemical_formula_sum              "H64 C112 N8 Sn16 Te16 Mg8"
_cell_length_a       17.3948
_cell_length_b       24.6228
_cell_length_c       10.1228
_cell_angle_alpha    90.2043
_cell_angle_beta     103.859
_cell_angle_gamma    90.0139

_symmetry_space_group_name_H-M    'P1'
_space_group_IT_number       1

loop_
  _space_group_symop_operation_xyz
  'x, y, z'

loop_
  _atom_site_type_symbol
  _atom_site_label
  _atom_site_symmetry_multiplicity
  _atom_site_fract_x
  _atom_site_fract_y
  _atom_site_fract_z
  _atom_site_occupancy
  H   H1        1.0  0.35748  0.50363  0.22081  1.0000
  H   H2        1.0  0.64727  0.50115  0.29742  1.0000
  H   H3        1.0  0.85809  0.00194  0.22775  1.0000
  H   H4        1.0  0.14542  0.00281  0.27036  1.0000
  H   H5        1.0  0.66287  0.56868  0.14001  1.0000
  H   H6        1.0  0.34063  0.57338  0.36382  1.0000
  H   H7        1.0  0.85700  0.07322  0.39751  1.0000
  H   H8        1.0  0.74769  0.64910  0.14778  1.0000
  H   H9        1.0  0.25710  0.65449  0.34546  1.0000
  H   H10       1.0  0.77552  0.15412  0.39974  1.0000
  H   H11       1.0  0.62463  0.72848  0.41612  1.0000
  H   H12       1.0  0.38994  0.72917  0.08664  1.0000
  H   H13       1.0  0.87127  0.22538  0.08556  1.0000
  H   H14       1.0  0.54031  0.64685  0.41062  1.0000
  H   H15       1.0  0.47162  0.64594  0.09882  1.0000
  H   H16       1.0  0.95326  0.14300  0.08269  1.0000
  H   H17       1.0  0.44702  0.37056  0.05987  1.0000
  H   H18       1.0  0.03997  0.86242  0.40818  1.0000
  H   H19       1.0  0.35866  0.29035  0.03403  1.0000
  H   H20       1.0  0.12628  0.78149  0.42879  1.0000
  H   H21       1.0  0.27058  0.34413  0.37487  1.0000
  H   H22       1.0  0.24117  0.84828  0.13430  1.0000
  H   H23       1.0  0.35590  0.42647  0.39577  1.0000
  H   H24       1.0  0.15593  0.93051  0.11587  1.0000
  H   H25       1.0  0.23680  0.73498  0.38280  1.0000
  H   H26       1.0  0.77209  0.73068  0.10973  1.0000
  H   H27       1.0  0.70165  0.21936  0.36113  1.0000
  H   H28       1.0  0.25552  0.23899  0.09749  1.0000
  H   H29       1.0  0.35524  0.50023  0.72259  1.0000
  H   H30       1.0  0.64299  0.50196  0.76883  1.0000
  H   H31       1.0  0.85501  0.00133  0.73078  1.0000
  H   H32       1.0  0.14280  0.00018  0.77444  1.0000
  H   H33       1.0  0.84246  0.07136  0.88119  1.0000
  H   H34       1.0  0.75829  0.15227  0.86814  1.0000
  H   H35       1.0  0.88016  0.22632  0.59237  1.0000
  H   H36       1.0  0.96301  0.14387  0.60099  1.0000
  H   H37       1.0  0.03942  0.86489  0.92488  1.0000
  H   H38       1.0  0.95612  0.86464  0.57325  1.0000
  H   H39       1.0  0.12488  0.78306  0.95160  1.0000
  H   H40       1.0  0.86847  0.78400  0.54456  1.0000
  H   H41       1.0  0.22881  0.83943  0.63238  1.0000
  H   H42       1.0  0.76245  0.84353  0.85949  1.0000
  H   H43       1.0  0.14671  0.92347  0.61126  1.0000
  H   H44       1.0  0.84721  0.92620  0.88272  1.0000
  H   H45       1.0  0.23460  0.73360  0.90096  1.0000
  H   H46       1.0  0.75918  0.73465  0.59592  1.0000
  H   H47       1.0  0.74094  0.23613  0.90735  1.0000
  H   H48       1.0  0.28165  0.22533  0.61681  1.0000
  C   C1        1.0  0.54511  0.55222  0.26557  1.0000
  C   C2        1.0  0.46158  0.55332  0.24758  1.0000
  C   C3        1.0  0.04285  0.05304  0.25375  1.0000
  C   C4        1.0  0.96017  0.05244  0.24490  1.0000
  C   C5        1.0  0.42175  0.50338  0.24014  1.0000
  C   C6        1.0  0.58291  0.50146  0.27629  1.0000
  C   C7        1.0  0.92191  0.00206  0.23950  1.0000
  C   C8        1.0  0.08145  0.00279  0.25643  1.0000
  C   C9        1.0  0.45937  0.45285  0.24762  1.0000
  C   C10       1.0  0.54285  0.45147  0.26719  1.0000
  C   C11       1.0  0.96042  0.95194  0.24123  1.0000
  C   C12       1.0  0.04316  0.95238  0.25097  1.0000
  C   C13       1.0  0.59464  0.60171  0.27361  1.0000
  C   C14       1.0  0.41365  0.60361  0.23487  1.0000
  C   C15       1.0  0.91111  0.10189  0.23986  1.0000
  C   C16       1.0  0.40845  0.40377  0.23102  1.0000
  C   C17       1.0  0.09203  0.90261  0.26123  1.0000
  C   C18       1.0  0.65471  0.60351  0.20176  1.0000
  C   C19       1.0  0.35143  0.60721  0.30171  1.0000
  C   C20       1.0  0.85878  0.10591  0.32622  1.0000
  C   C21       1.0  0.70208  0.64930  0.20486  1.0000
  C   C22       1.0  0.30488  0.65356  0.29314  1.0000
  C   C23       1.0  0.81248  0.15183  0.32722  1.0000
  C   C24       1.0  0.69044  0.69569  0.27980  1.0000
  C   C25       1.0  0.31983  0.69895  0.21852  1.0000
  C   C26       1.0  0.81659  0.19585  0.24049  1.0000
  C   C27       1.0  0.63199  0.69333  0.35494  1.0000
  C   C28       1.0  0.38016  0.69480  0.14781  1.0000
  C   C29       1.0  0.86822  0.19149  0.15279  1.0000
  C   C30       1.0  0.58494  0.64744  0.35165  1.0000
  C   C31       1.0  0.42589  0.64809  0.15535  1.0000
  C   C32       1.0  0.91436  0.14543  0.15201  1.0000
  C   C33       1.0  0.40885  0.36480  0.12950  1.0000
  C   C34       1.0  0.08386  0.85962  0.34804  1.0000
  C   C35       1.0  0.35950  0.31954  0.11546  1.0000
  C   C36       1.0  0.13226  0.81411  0.35957  1.0000
  C   C37       1.0  0.31020  0.31107  0.20541  1.0000
  C   C38       1.0  0.18913  0.80942  0.28193  1.0000
  C   C39       1.0  0.30897  0.35048  0.30592  1.0000
  C   C40       1.0  0.19761  0.85225  0.19493  1.0000
  C   C41       1.0  0.35657  0.39637  0.31707  1.0000
  C   C42       1.0  0.15010  0.89809  0.18559  1.0000
  C   C43       1.0  0.23707  0.76036  0.29364  1.0000
  C   C44       1.0  0.77220  0.75662  0.19851  1.0000
  C   C45       1.0  0.72028  0.25166  0.30079  1.0000
  C   C46       1.0  0.26196  0.26189  0.19312  1.0000
  C   C47       1.0  0.53984  0.55167  0.75156  1.0000
  C   C48       1.0  0.45719  0.55114  0.74343  1.0000
  C   C49       1.0  0.04085  0.05095  0.75921  1.0000
  C   C50       1.0  0.95816  0.05141  0.75105  1.0000
  C   C51       1.0  0.41930  0.50054  0.73786  1.0000
  C   C52       1.0  0.57908  0.50159  0.75610  1.0000
  C   C53       1.0  0.91900  0.00122  0.74423  1.0000
  C   C54       1.0  0.07887  0.00053  0.76156  1.0000
  C   C55       1.0  0.45856  0.45050  0.74234  1.0000
  C   C56       1.0  0.54144  0.45122  0.75425  1.0000
  C   C57       1.0  0.95703  0.95094  0.74537  1.0000
  C   C58       1.0  0.03968  0.95053  0.75564  1.0000
  C   C59       1.0  0.91017  0.10152  0.74389  1.0000
  C   C60       1.0  0.08696  0.89998  0.76633  1.0000
  C   C61       1.0  0.90819  0.90105  0.73067  1.0000
  C   C62       1.0  0.85065  0.10501  0.81656  1.0000
  C   C63       1.0  0.80369  0.15108  0.81074  1.0000
  C   C64       1.0  0.81523  0.19613  0.73225  1.0000
  C   C65       1.0  0.87303  0.19215  0.65619  1.0000
  C   C66       1.0  0.91958  0.14596  0.66212  1.0000
  C   C67       1.0  0.08068  0.85935  0.86048  1.0000
  C   C68       1.0  0.91395  0.86014  0.63626  1.0000
  C   C69       1.0  0.12828  0.81329  0.87493  1.0000
  C   C70       1.0  0.86514  0.81463  0.62085  1.0000
  C   C71       1.0  0.18155  0.80542  0.79164  1.0000
  C   C72       1.0  0.81089  0.80774  0.70273  1.0000
  C   C73       1.0  0.18763  0.84580  0.69658  1.0000
  C   C74       1.0  0.80465  0.84877  0.79678  1.0000
  C   C75       1.0  0.14177  0.89253  0.68538  1.0000
  C   C76       1.0  0.85188  0.89484  0.80906  1.0000
  C   C77       1.0  0.22946  0.75613  0.80552  1.0000
  C   C78       1.0  0.76331  0.75828  0.68987  1.0000
  C   C79       1.0  0.73641  0.25926  0.81294  1.0000
  C   C80       1.0  0.27323  0.25363  0.69646  1.0000
  N   N1        1.0  0.77502  0.24505  0.23516  1.0000
  N   N2        1.0  0.22887  0.24685  0.28876  1.0000
  N   N3        1.0  0.27712  0.74789  0.20529  1.0000
  N   N4        1.0  0.73377  0.74436  0.28922  1.0000
  N   N5        1.0  0.77130  0.24439  0.71932  1.0000
  N   N6        1.0  0.22751  0.24345  0.77735  1.0000
  N   N7        1.0  0.26388  0.74118  0.71130  1.0000
  N   N8        1.0  0.72813  0.74409  0.78347  1.0000
  C   C81       1.0  0.38189  0.68301  0.63437  1.0000
  C   C82       1.0  0.31979  0.69192  0.69748  1.0000
  C  Sn1       1.0  0.30349  0.65407  0.78965  1.0000
  C  Sn2       1.0  0.35034  0.60647  0.81899  1.0000
  C   C83       1.0  0.41237  0.59795  0.75539  1.0000
  C   C84       1.0  0.42816  0.63608  0.66330  1.0000
  H   H49       1.0  0.39414  0.71252  0.56318  1.0000
  O  Te1       1.0  0.24120  0.66360  0.85175  1.0000
  O  Te2       1.0  0.33535  0.56799  0.91073  1.0000
  H   H50       1.0  0.47627  0.62919  0.61452  1.0000
  Mg  Mg1       1.0  0.24396  0.59918  0.96944  1.0000
  C   C85       1.0  0.69447  0.36270  0.21527  1.0000
  C   C86       1.0  0.68808  0.31526  0.28729  1.0000
  C  Sn3       1.0  0.62734  0.30965  0.35496  1.0000
  C  Sn4       1.0  0.57205  0.35238  0.35022  1.0000
  C   C87       1.0  0.57892  0.39966  0.27781  1.0000
  C   C88       1.0  0.63994  0.40485  0.21050  1.0000
  H   H51       1.0  0.74166  0.36671  0.16313  1.0000
  O  Te3       1.0  0.62184  0.26199  0.42649  1.0000
  O  Te4       1.0  0.51075  0.34783  0.41689  1.0000
  H   H52       1.0  0.64485  0.44157  0.15467  1.0000
  Mg  Mg2       1.0  0.52800  0.27498  0.50096  1.0000
  C   C89       1.0  0.58703  0.65921  0.86033  1.0000
  C   C90       1.0  0.58199  0.61324  0.77731  1.0000
  C  Sn5       1.0  0.63361  0.60693  0.69175  1.0000
  C  Sn6       1.0  0.69129  0.64746  0.68951  1.0000
  C   C91       1.0  0.69587  0.69328  0.77303  1.0000
  C   C92       1.0  0.64391  0.69919  0.85822  1.0000
  H   H53       1.0  0.54685  0.66378  0.92630  1.0000
  O  Te5       1.0  0.62775  0.56077  0.60943  1.0000
  O  Te6       1.0  0.74363  0.64217  0.60501  1.0000
  H   H54       1.0  0.64786  0.73477  0.92255  1.0000
  Mg  Mg3       1.0  0.71234  0.57197  0.51153  1.0000
  C   C93       1.0  0.08687  0.16134  0.36099  1.0000
  C   C94       1.0  0.08433  0.11497  0.28005  1.0000
  C  Sn7       1.0  0.13789  0.10879  0.19795  1.0000
  C  Sn8       1.0  0.19501  0.14986  0.19712  1.0000
  C   C95       1.0  0.19710  0.19608  0.27853  1.0000
  C   C96       1.0  0.14321  0.20186  0.36027  1.0000
  H   H55       1.0  0.04520  0.16580  0.42429  1.0000
  O  Te7       1.0  0.13451  0.06221  0.11767  1.0000
  O  Te8       1.0  0.24926  0.14471  0.11606  1.0000
  H   H56       1.0  0.14522  0.23775  0.42299  1.0000
  Mg  Mg4       1.0  0.22105  0.07381  0.02432  1.0000
  C   C97       1.0  0.42190  0.34154  0.63710  1.0000
  C   C98       1.0  0.41458  0.38999  0.70533  1.0000
  C  Sn9       1.0  0.35769  0.39482  0.78146  1.0000
  C  Sn10      1.0  0.30731  0.35023  0.78929  1.0000
  C   C99       1.0  0.31515  0.30192  0.72075  1.0000
  C   C100      1.0  0.37225  0.29754  0.64481  1.0000
  H   H57       1.0  0.46611  0.33814  0.57841  1.0000
  O  Te9       1.0  0.35115  0.44353  0.84895  1.0000
  O  Te10      1.0  0.24997  0.35394  0.86471  1.0000
  H   H58       1.0  0.37795  0.26000  0.59208  1.0000
  Mg  Mg5       1.0  0.26391  0.42879  0.93875  1.0000
  C   C101      1.0  0.68139  0.35876  0.67537  1.0000
  C   C102      1.0  0.69296  0.31876  0.77579  1.0000
  C  Sn11      1.0  0.64944  0.31983  0.87523  1.0000
  C  Sn12      1.0  0.59332  0.36176  0.87383  1.0000
  C   C103      1.0  0.58214  0.40156  0.77288  1.0000
  C   C104      1.0  0.62603  0.40012  0.67388  1.0000
  H   H59       1.0  0.71531  0.35762  0.59873  1.0000
  O  Te11      1.0  0.66176  0.27956  0.97485  1.0000
  O  Te12      1.0  0.54900  0.36379  0.97197  1.0000
  H   H60       1.0  0.61702  0.43107  0.59610  1.0000
  Mg  Mg6       1.0  0.44765  0.29827  0.08683  1.0000
  C   C105      1.0  0.83562  0.88964  0.31001  1.0000
  C   C106      1.0  0.89889  0.90110  0.25162  1.0000
  C  Sn13      1.0  0.91992  0.86437  0.16082  1.0000
  C  Sn14      1.0  0.87668  0.81530  0.12803  1.0000
  C   C107      1.0  0.81344  0.80423  0.18690  1.0000
  C   C108      1.0  0.79292  0.84126  0.27768  1.0000
  H   H61       1.0  0.81971  0.91830  0.38018  1.0000
  O  Te13      1.0  0.98332  0.87644  0.10345  1.0000
  O  Te14      1.0  0.89641  0.77788  0.03754  1.0000
  H   H62       1.0  0.74389  0.83239  0.32279  1.0000
  Mg  Mg7       1.0  0.12693  0.81411  0.98574  1.0000
  C   C109      1.0  0.15978  0.11118  0.66983  1.0000
  C   C110      1.0  0.10684  0.09918  0.74996  1.0000
  C  Sn15      1.0  0.09065  0.13777  0.84113  1.0000
  C  Sn16      1.0  0.12824  0.18929  0.85202  1.0000
  C   C111      1.0  0.18108  0.20091  0.77133  1.0000
  C   C112      1.0  0.19686  0.16199  0.68047  1.0000
  H   H63       1.0  0.17197  0.08108  0.59947  1.0000
  O  Te15      1.0  0.03762  0.12511  0.92046  1.0000
  O  Te16      1.0  0.11312  0.22861  0.94227  1.0000
  H   H64       1.0  0.23782  0.17131  0.61838  1.0000
  Mg  Mg8       1.0  0.89691  0.19066  0.02864  1.0000
