data_image0
_chemical_formula_structural       H48C80N8SnCSn2CSnTe4Mg2SnCSn2CSnTe4Mg2SnCSn2CSnTe4Mg2SnCSn2CSnTe4Mg2SnCSn2CSnTe4Mg2SnCSn2CSnTe4Mg2SnCSn2CSnTe4Mg2SnCSn2CSnTe4Mg2
_chemical_formula_sum              "H48 C96 N8 Sn32 Te32 Mg16"
_cell_length_a       17.189
_cell_length_b       24.777
_cell_length_c       11.2871
_cell_angle_alpha    90.2933
_cell_angle_beta     117.742
_cell_angle_gamma    90.0285

_symmetry_space_group_name_H-M    'P1'
_space_group_IT_number       1

loop_
  _space_group_symop_operation_xyz
  'x, y, z'

loop_
  _atom_site_type_symbol
  _atom_site_label
  _atom_site_symmetry_multiplicity
  _atom_site_fract_x
  _atom_site_fract_y
  _atom_site_fract_z
  _atom_site_occupancy
  H   H1        1.0  0.63744  0.43247  0.13669  1.0000
  H   H2        1.0  0.14823  0.93154  0.15560  1.0000
  H   H3        1.0  0.72143  0.35158  0.14388  1.0000
  H   H4        1.0  0.23623  0.85020  0.17687  1.0000
  H   H5        1.0  0.64228  0.27717  0.41487  1.0000
  H   H6        1.0  0.13310  0.77571  0.41806  1.0000
  H   H7        1.0  0.55921  0.35960  0.41078  1.0000
  H   H8        1.0  0.04970  0.85924  0.40538  1.0000
  H   H9        1.0  0.42219  0.63582  0.08829  1.0000
  H   H10       1.0  0.42206  0.36596  0.07751  1.0000
  H   H11       1.0  0.93017  0.86262  0.08698  1.0000
  H   H12       1.0  0.33163  0.71663  0.06671  1.0000
  H   H13       1.0  0.33306  0.28426  0.05574  1.0000
  H   H14       1.0  0.84262  0.78027  0.06617  1.0000
  H   H15       1.0  0.27793  0.65675  0.37855  1.0000
  H   H16       1.0  0.28716  0.34066  0.37894  1.0000
  H   H17       1.0  0.77130  0.84450  0.35652  1.0000
  H   H18       1.0  0.36587  0.57420  0.39614  1.0000
  H   H19       1.0  0.37192  0.42462  0.39517  1.0000
  H   H20       1.0  0.85696  0.92814  0.37488  1.0000
  H   H21       1.0  0.74932  0.27277  0.12074  1.0000
  H   H22       1.0  0.75155  0.72774  0.12789  1.0000
  H   H23       1.0  0.23860  0.76755  0.12847  1.0000
  H   H24       1.0  0.24736  0.22994  0.12549  1.0000
  H   H25       1.0  0.34718  0.49973  0.23487  1.0000
  H   H26       1.0  0.84340  0.00026  0.21981  1.0000
  H   H27       1.0  0.64808  0.50235  0.28942  1.0000
  H   H28       1.0  0.14705  0.00158  0.28713  1.0000
  H   H29       1.0  0.11055  0.07452  0.60207  1.0000
  H   H30       1.0  0.19157  0.15661  0.60842  1.0000
  H   H31       1.0  0.13795  0.22263  0.91649  1.0000
  H   H32       1.0  0.05680  0.13891  0.91153  1.0000
  H   H33       1.0  0.43267  0.63679  0.59902  1.0000
  H   H34       1.0  0.43398  0.36048  0.59599  1.0000
  H   H35       1.0  0.34703  0.71954  0.57815  1.0000
  H   H36       1.0  0.34888  0.27715  0.57559  1.0000
  H   H37       1.0  0.27077  0.65696  0.86391  1.0000
  H   H38       1.0  0.26566  0.34247  0.85164  1.0000
  H   H39       1.0  0.35530  0.57314  0.88299  1.0000
  H   H40       1.0  0.35274  0.42612  0.87446  1.0000
  H   H41       1.0  0.74176  0.26976  0.62682  1.0000
  H   H42       1.0  0.73673  0.73049  0.62199  1.0000
  H   H43       1.0  0.25265  0.77168  0.63155  1.0000
  H   H44       1.0  0.26299  0.22260  0.64066  1.0000
  H   H45       1.0  0.34429  0.49911  0.73363  1.0000
  H   H46       1.0  0.84258  0.99715  0.73412  1.0000
  H   H47       1.0  0.64632  0.49996  0.79282  1.0000
  H   H48       1.0  0.13848  0.00185  0.76821  1.0000
  C   C1        1.0  0.53990  0.55160  0.26880  1.0000
  C   C2        1.0  0.54085  0.45161  0.26488  1.0000
  C   C3        1.0  0.03765  0.05123  0.25836  1.0000
  C   C4        1.0  0.03940  0.95103  0.26243  1.0000
  C   C5        1.0  0.45392  0.55063  0.25683  1.0000
  C   C6        1.0  0.45485  0.45084  0.25237  1.0000
  C   C7        1.0  0.95074  0.05072  0.24282  1.0000
  C   C8        1.0  0.95232  0.95080  0.24618  1.0000
  C   C9        1.0  0.59104  0.40213  0.27187  1.0000
  C   C10       1.0  0.09088  0.90131  0.27662  1.0000
  C   C11       1.0  0.40168  0.59976  0.24523  1.0000
  C   C12       1.0  0.40430  0.40071  0.23924  1.0000
  C   C13       1.0  0.90109  0.90102  0.23373  1.0000
  C   C14       1.0  0.63899  0.39871  0.19923  1.0000
  C   C15       1.0  0.14521  0.89763  0.21430  1.0000
  C   C16       1.0  0.68624  0.35262  0.20277  1.0000
  C   C17       1.0  0.19385  0.85137  0.22439  1.0000
  C   C18       1.0  0.68681  0.30760  0.27922  1.0000
  C   C19       1.0  0.18805  0.80607  0.29511  1.0000
  C   C20       1.0  0.64093  0.31169  0.35477  1.0000
  C   C21       1.0  0.13627  0.81035  0.36152  1.0000
  C   C22       1.0  0.59388  0.35782  0.35122  1.0000
  C   C23       1.0  0.08889  0.85698  0.35278  1.0000
  C   C24       1.0  0.39107  0.64036  0.15234  1.0000
  C   C25       1.0  0.39277  0.36060  0.14377  1.0000
  C   C26       1.0  0.89597  0.85876  0.14674  1.0000
  C   C27       1.0  0.34078  0.68592  0.14097  1.0000
  C   C28       1.0  0.34352  0.31439  0.13257  1.0000
  C   C29       1.0  0.84750  0.81228  0.13595  1.0000
  C   C30       1.0  0.30176  0.69292  0.22549  1.0000
  C   C31       1.0  0.30681  0.30618  0.21967  1.0000
  C   C32       1.0  0.80396  0.80623  0.21429  1.0000
  C   C33       1.0  0.31024  0.65175  0.31617  1.0000
  C   C34       1.0  0.31684  0.34679  0.31346  1.0000
  C   C35       1.0  0.80679  0.84902  0.29869  1.0000
  C   C36       1.0  0.35904  0.60578  0.32519  1.0000
  C   C37       1.0  0.36400  0.39345  0.32195  1.0000
  C   C38       1.0  0.85421  0.89565  0.30767  1.0000
  C   C39       1.0  0.75758  0.24595  0.20307  1.0000
  C   C40       1.0  0.75829  0.75589  0.20781  1.0000
  C   C41       1.0  0.25415  0.74264  0.21701  1.0000
  C   C42       1.0  0.25932  0.25632  0.21104  1.0000
  C   C43       1.0  0.41452  0.50032  0.25008  1.0000
  C   C44       1.0  0.91134  0.00060  0.23795  1.0000
  C   C45       1.0  0.58059  0.50192  0.27347  1.0000
  C   C46       1.0  0.07894  0.00128  0.26827  1.0000
  C   C47       1.0  0.53826  0.54947  0.76918  1.0000
  C   C48       1.0  0.53808  0.44945  0.76672  1.0000
  C   C49       1.0  0.03071  0.04986  0.75225  1.0000
  C   C50       1.0  0.03466  0.95016  0.75601  1.0000
  C   C51       1.0  0.45199  0.54923  0.75610  1.0000
  C   C52       1.0  0.45145  0.44924  0.75254  1.0000
  C   C53       1.0  0.94637  0.04887  0.74598  1.0000
  C   C54       1.0  0.95002  0.94924  0.74860  1.0000
  C   C55       1.0  0.07855  0.10024  0.75753  1.0000
  C   C56       1.0  0.40104  0.59907  0.74324  1.0000
  C   C57       1.0  0.39993  0.39928  0.73707  1.0000
  C   C58       1.0  0.11806  0.10638  0.67356  1.0000
  C   C59       1.0  0.16382  0.15318  0.67707  1.0000
  C   C60       1.0  0.17195  0.19590  0.76516  1.0000
  C   C61       1.0  0.13249  0.18955  0.84924  1.0000
  C   C62       1.0  0.08696  0.14265  0.84596  1.0000
  C   C63       1.0  0.39757  0.64102  0.65743  1.0000
  C   C64       1.0  0.39767  0.35661  0.65270  1.0000
  C   C65       1.0  0.34983  0.68772  0.64635  1.0000
  C   C66       1.0  0.35046  0.30961  0.64228  1.0000
  C   C67       1.0  0.30486  0.69435  0.72256  1.0000
  C   C68       1.0  0.30342  0.30380  0.71562  1.0000
  C   C69       1.0  0.30653  0.65203  0.80651  1.0000
  C   C70       1.0  0.30316  0.34703  0.79685  1.0000
  C   C71       1.0  0.35354  0.60518  0.81612  1.0000
  C   C72       1.0  0.35108  0.39367  0.80794  1.0000
  C   C73       1.0  0.75265  0.24299  0.71053  1.0000
  C   C74       1.0  0.75309  0.75579  0.71085  1.0000
  C   C75       1.0  0.25865  0.74478  0.71255  1.0000
  C   C76       1.0  0.25777  0.25324  0.70745  1.0000
  C   C77       1.0  0.41182  0.49915  0.74965  1.0000
  C   C78       1.0  0.90891  0.99847  0.74528  1.0000
  C   C79       1.0  0.57844  0.49957  0.77499  1.0000
  C   C80       1.0  0.07219  0.00061  0.75725  1.0000
  N   N1        1.0  0.23189  0.75693  0.30752  1.0000
  N   N2        1.0  0.23251  0.24421  0.29753  1.0000
  N   N3        1.0  0.72962  0.25831  0.28825  1.0000
  N   N4        1.0  0.72836  0.74530  0.29137  1.0000
  N   N5        1.0  0.22687  0.75683  0.79323  1.0000
  N   N6        1.0  0.21560  0.24514  0.77569  1.0000
  N   N7        1.0  0.72727  0.25542  0.79869  1.0000
  N   N8        1.0  0.73146  0.74236  0.80235  1.0000
  C  Sn1       1.0  0.64517  0.68009  0.39171  1.0000
  C   C81       1.0  0.69508  0.68938  0.32522  1.0000
  C  Sn2       1.0  0.68737  0.65511  0.22161  1.0000
  C  Sn3       1.0  0.62850  0.61064  0.18361  1.0000
  C   C82       1.0  0.57863  0.60138  0.25007  1.0000
  C  Sn4       1.0  0.58631  0.63562  0.35371  1.0000
  O  Te1       1.0  0.65394  0.71487  0.49499  1.0000
  O  Te2       1.0  0.73797  0.66521  0.15665  1.0000
  O  Te3       1.0  0.61977  0.57585  0.08024  1.0000
  O  Te4       1.0  0.53574  0.62555  0.41863  1.0000
  Mg  Mg1       1.0  0.70278  0.60639  0.02202  1.0000
  Mg  Mg2       1.0  0.57083  0.68435  0.55322  1.0000
  C  Sn5       1.0  0.83886  0.14940  0.33625  1.0000
  C   C83       1.0  0.82399  0.19334  0.25129  1.0000
  C  Sn6       1.0  0.83927  0.18889  0.14043  1.0000
  C  Sn7       1.0  0.87000  0.13949  0.11387  1.0000
  C   C84       1.0  0.88484  0.09558  0.19879  1.0000
  C  Sn8       1.0  0.86959  0.09999  0.30969  1.0000
  O  Te5       1.0  0.82314  0.15475  0.44649  1.0000
  O  Te6       1.0  0.82395  0.23339  0.05696  1.0000
  O  Te7       1.0  0.88572  0.13417  0.00352  1.0000
  O  Te8       1.0  0.88488  0.05553  0.39312  1.0000
  Mg  Mg3       1.0  0.16071  0.20861  0.91923  1.0000
  Mg  Mg4       1.0  0.85377  0.08269  0.53083  1.0000
  C  Sn9       1.0  0.11831  0.85182  0.88675  1.0000
  C   C85       1.0  0.10932  0.89870  0.81319  1.0000
  C  Sn10      1.0  0.13081  0.89855  0.70811  1.0000
  C  Sn11      1.0  0.16191  0.85053  0.67582  1.0000
  C   C86       1.0  0.17088  0.80368  0.74934  1.0000
  C  Sn12      1.0  0.14941  0.80380  0.85446  1.0000
  O  Te9       1.0  0.09643  0.85289  0.99139  1.0000
  O  Te10      1.0  0.12130  0.94592  0.63604  1.0000
  O  Te11      1.0  0.18380  0.84948  0.57109  1.0000
  O  Te12      1.0  0.15889  0.75646  0.92649  1.0000
  Mg  Mg5       1.0  0.15961  0.92420  0.50229  1.0000
  Mg  Mg6       1.0  0.81489  0.77569  0.06021  1.0000
  C  Sn13      1.0  0.79902  0.86477  0.79430  1.0000
  C   C87       1.0  0.78322  0.82013  0.70986  1.0000
  C  Sn14      1.0  0.83355  0.81193  0.64355  1.0000
  C  Sn15      1.0  0.90112  0.84909  0.66209  1.0000
  C   C88       1.0  0.91691  0.89369  0.74651  1.0000
  C  Sn16      1.0  0.86660  0.90193  0.81284  1.0000
  O  Te13      1.0  0.74790  0.87217  0.85958  1.0000
  O  Te14      1.0  0.81650  0.76702  0.55960  1.0000
  O  Te15      1.0  0.95225  0.84166  0.59672  1.0000
  O  Te16      1.0  0.88363  0.94680  0.89676  1.0000
  Mg  Mg7       1.0  0.90395  0.77437  0.49272  1.0000
  Mg  Mg8       1.0  0.79626  0.93947  0.96374  1.0000
  C  Sn17      1.0  0.64966  0.67532  0.90146  1.0000
  C   C89       1.0  0.69645  0.68631  0.83093  1.0000
  C  Sn18      1.0  0.68468  0.65421  0.72169  1.0000
  C  Sn19      1.0  0.62484  0.61021  0.68207  1.0000
  C   C90       1.0  0.57808  0.59925  0.75257  1.0000
  C  Sn20      1.0  0.58983  0.63133  0.86184  1.0000
  O  Te17      1.0  0.35681  0.70551  0.01035  1.0000
  O  Te18      1.0  0.73222  0.66598  0.65276  1.0000
  O  Te19      1.0  0.61206  0.57758  0.57309  1.0000
  O  Te20      1.0  0.54231  0.61958  0.93073  1.0000
  Mg  Mg9       1.0  0.69199  0.60982  0.51101  1.0000
  Mg  Mg10      1.0  0.27679  0.67328  0.07245  1.0000
  C  Sn21      1.0  0.83138  0.14568  0.83885  1.0000
  C   C91       1.0  0.81793  0.19037  0.75655  1.0000
  C  Sn22      1.0  0.83624  0.18728  0.64842  1.0000
  C  Sn23      1.0  0.86864  0.13851  0.62194  1.0000
  C   C92       1.0  0.88206  0.09386  0.70420  1.0000
  C  Sn24      1.0  0.86378  0.09691  0.81237  1.0000
  O  Te21      1.0  0.81262  0.14968  0.94639  1.0000
  O  Te22      1.0  0.82229  0.23250  0.56757  1.0000
  O  Te23      1.0  0.88740  0.13455  0.51430  1.0000
  O  Te24      1.0  0.87770  0.05173  0.89317  1.0000
  Mg  Mg11      1.0  0.85757  0.20711  0.43297  1.0000
  Mg  Mg12      1.0  0.53673  0.07462  0.02775  1.0000
  C  Sn25      1.0  0.17567  0.10539  0.23740  1.0000
  C   C93       1.0  0.11588  0.09764  0.28743  1.0000
  C  Sn26      1.0  0.08541  0.14160  0.33183  1.0000
  C  Sn27      1.0  0.11526  0.19441  0.32603  1.0000
  C   C94       1.0  0.17500  0.20215  0.27600  1.0000
  C  Sn28      1.0  0.20553  0.15820  0.23160  1.0000
  O  Te25      1.0  0.20525  0.06085  0.19355  1.0000
  O  Te26      1.0  0.02567  0.13284  0.38149  1.0000
  O  Te27      1.0  0.08563  0.23896  0.36994  1.0000
  O  Te28      1.0  0.26521  0.16694  0.18195  1.0000
  Mg  Mg13      1.0  0.00446  0.20642  0.42922  1.0000
  Mg  Mg14      1.0  0.28643  0.09340  0.13413  1.0000
  C  Sn29      1.0  0.60081  0.31104  0.82940  1.0000
  C   C95       1.0  0.65535  0.30128  0.77072  1.0000
  C  Sn30      1.0  0.68595  0.34406  0.72347  1.0000
  C  Sn31      1.0  0.66157  0.39773  0.73519  1.0000
  C   C96       1.0  0.60707  0.40747  0.79386  1.0000
  C  Sn32      1.0  0.57643  0.36470  0.84112  1.0000
  O  Te29      1.0  0.57100  0.26765  0.87596  1.0000
  O  Te30      1.0  0.74039  0.33330  0.66513  1.0000
  O  Te31      1.0  0.69143  0.44113  0.68857  1.0000
  O  Te32      1.0  0.52204  0.37545  0.89945  1.0000
  Mg  Mg15      1.0  0.76420  0.40593  0.61682  1.0000
  Mg  Mg16      1.0  0.49823  0.30286  0.94785  1.0000
