data_image0
_chemical_formula_structural       H24C48N12C2Sn2C2HTe2HMgC2Sn2C2HTe2HMgC2Sn2C2HTe2HMgC2Sn2C2HTe2HMgC2Sn2C2HTe2HMgC2Sn2C2HTe2HMgC2Sn2C2HTe2HMgC2Sn2C2HTe2HMgC2Sn2C2HTe2HMgC2Sn2C2HTe2HMgC2Sn2C2HTe2HMgC2Sn2C2HTe2HMgC2Sn2C2HTe2HMgC2Sn2C2HTe2HMgC2Sn2C2HTe2HMgC2Sn2C2HTe2HMgC2Sn2C2HTe2HMgC2Sn2C2HTe2HMgC2Sn2C2HTe2HMgC2Sn2C2HTe2HMgC2Sn2C2HTe2HMgC2Sn2C2HTe2HMgC2Sn2C2HTe2HMgC2Sn2C2HTe2HMg
_chemical_formula_sum              "H72 C144 N12 Sn48 Te48 Mg24"
_cell_length_a       30.1108
_cell_length_b       30.0991
_cell_length_c       9.72236
_cell_angle_alpha    89.7471
_cell_angle_beta     90.8128
_cell_angle_gamma    120.121

_symmetry_space_group_name_H-M    'P1'
_space_group_IT_number       1

loop_
  _space_group_symop_operation_xyz
  'x, y, z'

loop_
  _atom_site_type_symbol
  _atom_site_label
  _atom_site_symmetry_multiplicity
  _atom_site_fract_x
  _atom_site_fract_y
  _atom_site_fract_z
  _atom_site_occupancy
  H   H1        1.0  0.41989  0.00407  0.27509  1.0000
  H   H2        1.0  0.99888  0.41484  0.24634  1.0000
  H   H3        1.0  0.58476  0.58311  0.25677  1.0000
  H   H4        1.0  0.57863  0.99709  0.22623  1.0000
  H   H5        1.0  0.00261  0.57982  0.21686  1.0000
  H   H6        1.0  0.42010  0.42099  0.22607  1.0000
  H   H7        1.0  0.73636  0.26236  0.38610  1.0000
  H   H8        1.0  0.74260  0.47928  0.39744  1.0000
  H   H9        1.0  0.54006  0.27174  0.38576  1.0000
  H   H10       1.0  0.23889  0.46935  0.35432  1.0000
  H   H11       1.0  0.52812  0.76648  0.36085  1.0000
  H   H12       1.0  0.23317  0.76283  0.36373  1.0000
  H   H13       1.0  0.42059  0.00426  0.76546  1.0000
  H   H14       1.0  0.99660  0.41841  0.76354  1.0000
  H   H15       1.0  0.58172  0.57929  0.77143  1.0000
  H   H16       1.0  0.57913  0.99664  0.72635  1.0000
  H   H17       1.0  0.00174  0.58315  0.70482  1.0000
  H   H18       1.0  0.41581  0.41901  0.72392  1.0000
  H   H19       1.0  0.73043  0.26600  0.85956  1.0000
  H   H20       1.0  0.73703  0.46936  0.87333  1.0000
  H   H21       1.0  0.53445  0.26895  0.88543  1.0000
  H   H22       1.0  0.23665  0.47142  0.85412  1.0000
  H   H23       1.0  0.52529  0.76416  0.86009  1.0000
  H   H24       1.0  0.23007  0.76614  0.85712  1.0000
  C   C1        1.0  0.54790  0.04683  0.25462  1.0000
  C   C2        1.0  0.95382  0.49842  0.23844  1.0000
  C   C3        1.0  0.50155  0.45403  0.25192  1.0000
  C   C4        1.0  0.50210  0.04894  0.26804  1.0000
  C   C5        1.0  0.95323  0.45102  0.24620  1.0000
  C   C6        1.0  0.54901  0.50108  0.25884  1.0000
  C   C7        1.0  0.45504  0.00256  0.26423  1.0000
  C   C8        1.0  0.99992  0.45147  0.24027  1.0000
  C   C9        1.0  0.54826  0.54725  0.25071  1.0000
  C   C10       1.0  0.45082  0.95425  0.24775  1.0000
  C   C11       1.0  0.04776  0.49651  0.22908  1.0000
  C   C12       1.0  0.50302  0.54970  0.23761  1.0000
  C   C13       1.0  0.49657  0.95216  0.23345  1.0000
  C   C14       1.0  0.04865  0.54405  0.22010  1.0000
  C   C15       1.0  0.45572  0.50280  0.22765  1.0000
  C   C16       1.0  0.54348  0.99856  0.23713  1.0000
  C   C17       1.0  0.00168  0.54328  0.22440  1.0000
  C   C18       1.0  0.45660  0.45675  0.23416  1.0000
  C   C19       1.0  0.76379  0.26040  0.31625  1.0000
  C   C20       1.0  0.74094  0.50250  0.31179  1.0000
  C   C21       1.0  0.50663  0.24191  0.32830  1.0000
  C   C22       1.0  0.23145  0.48172  0.25409  1.0000
  C   C23       1.0  0.51534  0.74714  0.26031  1.0000
  C   C24       1.0  0.25175  0.77052  0.26278  1.0000
  C   C25       1.0  0.54860  0.04669  0.75314  1.0000
  C   C26       1.0  0.95243  0.50237  0.73560  1.0000
  C   C27       1.0  0.49679  0.45082  0.75255  1.0000
  C   C28       1.0  0.50266  0.04879  0.76309  1.0000
  C   C29       1.0  0.95106  0.45475  0.75216  1.0000
  C   C30       1.0  0.54479  0.49703  0.76486  1.0000
  C   C31       1.0  0.45568  0.00249  0.75797  1.0000
  C   C32       1.0  0.99773  0.45487  0.75047  1.0000
  C   C33       1.0  0.54503  0.54381  0.76095  1.0000
  C   C34       1.0  0.45124  0.95403  0.74365  1.0000
  C   C35       1.0  0.04577  0.49921  0.73408  1.0000
  C   C36       1.0  0.50057  0.54738  0.74393  1.0000
  C   C37       1.0  0.49706  0.95188  0.73121  1.0000
  C   C38       1.0  0.04715  0.54674  0.71742  1.0000
  C   C39       1.0  0.45269  0.50119  0.72922  1.0000
  C   C40       1.0  0.54401  0.99826  0.73607  1.0000
  C   C41       1.0  0.00051  0.54662  0.71795  1.0000
  C   C42       1.0  0.45248  0.45450  0.73430  1.0000
  C   C43       1.0  0.76138  0.26259  0.81074  1.0000
  C   C44       1.0  0.73729  0.49903  0.80611  1.0000
  C   C45       1.0  0.50241  0.23935  0.82352  1.0000
  C   C46       1.0  0.22917  0.48334  0.75330  1.0000
  C   C47       1.0  0.51337  0.74516  0.75896  1.0000
  C   C48       1.0  0.25042  0.77254  0.75939  1.0000
  N   N1        1.0  0.75204  0.21888  0.25006  1.0000
  N   N2        1.0  0.77778  0.52419  0.22558  1.0000
  N   N3        1.0  0.47278  0.25124  0.27449  1.0000
  N   N4        1.0  0.26250  0.49279  0.15257  1.0000
  N   N5        1.0  0.50371  0.76751  0.15897  1.0000
  N   N6        1.0  0.23093  0.73938  0.16008  1.0000
  N   N7        1.0  0.75318  0.21902  0.76394  1.0000
  N   N8        1.0  0.77724  0.52947  0.73623  1.0000
  N   N9        1.0  0.46929  0.24853  0.76453  1.0000
  N   N10       1.0  0.26032  0.49375  0.65226  1.0000
  N   N11       1.0  0.50263  0.76616  0.65732  1.0000
  N   N12       1.0  0.23097  0.74041  0.65821  1.0000
  C   C49       1.0  0.65355  0.09720  0.34436  1.0000
  C   C50       1.0  0.60915  0.09239  0.28250  1.0000
  C  Sn1       1.0  0.61209  0.13125  0.19729  1.0000
  C  Sn2       1.0  0.66043  0.17570  0.17374  1.0000
  C   C51       1.0  0.70462  0.18014  0.23603  1.0000
  C   C52       1.0  0.70124  0.14103  0.32115  1.0000
  H   H25       1.0  0.65094  0.06693  0.41016  1.0000
  O  Te1       1.0  0.56736  0.12583  0.13634  1.0000
  O  Te2       1.0  0.66446  0.21512  0.08900  1.0000
  H   H26       1.0  0.73562  0.14475  0.36896  1.0000
  Mg  Mg1       1.0  0.59258  0.18997  0.02915  1.0000
  C   C53       1.0  0.87792  0.55484  0.32449  1.0000
  C   C54       1.0  0.83190  0.52766  0.24999  1.0000
  C  Sn3       1.0  0.82202  0.48459  0.17250  1.0000
  C  Sn4       1.0  0.85896  0.46851  0.16978  1.0000
  C   C55       1.0  0.90487  0.49595  0.24475  1.0000
  C   C56       1.0  0.91437  0.53900  0.32191  1.0000
  H   H27       1.0  0.88526  0.58814  0.38426  1.0000
  O  Te3       1.0  0.77586  0.45789  0.09862  1.0000
  O  Te4       1.0  0.85006  0.42559  0.09323  1.0000
  H   H28       1.0  0.94999  0.56002  0.37966  1.0000
  Mg  Mg2       1.0  0.78139  0.40182  0.00964  1.0000
  C   C57       1.0  0.53526  0.38133  0.18879  1.0000
  C   C58       1.0  0.50385  0.39954  0.23735  1.0000
  C  Sn5       1.0  0.46031  0.36753  0.31373  1.0000
  C  Sn6       1.0  0.44810  0.31635  0.34188  1.0000
  C   C59       1.0  0.47979  0.29851  0.29293  1.0000
  C   C60       1.0  0.52325  0.33087  0.21656  1.0000
  H   H29       1.0  0.56890  0.40637  0.12976  1.0000
  O  Te5       1.0  0.42934  0.38633  0.36142  1.0000
  O  Te6       1.0  0.40483  0.28354  0.41802  1.0000
  H   H30       1.0  0.54758  0.31677  0.17905  1.0000
  Mg  Mg3       1.0  0.37450  0.32690  0.46069  1.0000
  C   C61       1.0  0.37561  0.85567  0.13251  1.0000
  C   C62       1.0  0.39554  0.89955  0.21533  1.0000
  C  Sn7       1.0  0.36737  0.90148  0.32579  1.0000
  C  Sn8       1.0  0.31835  0.85862  0.35362  1.0000
  C   C63       1.0  0.29877  0.81488  0.27021  1.0000
  C   C64       1.0  0.32728  0.81337  0.15992  1.0000
  H   H31       1.0  0.39768  0.85449  0.04721  1.0000
  O  Te7       1.0  0.38785  0.94562  0.40747  1.0000
  O  Te8       1.0  0.28939  0.85950  0.46339  1.0000
  H   H32       1.0  0.31185  0.77938  0.09587  1.0000
  Mg  Mg4       1.0  0.33375  0.92839  0.54519  1.0000
  C   C65       1.0  0.10744  0.45503  0.34558  1.0000
  C   C66       1.0  0.09563  0.48494  0.25894  1.0000
  C  Sn9       1.0  0.12930  0.51423  0.15492  1.0000
  C  Sn10      1.0  0.17562  0.51347  0.13755  1.0000
  C   C67       1.0  0.18707  0.48339  0.22471  1.0000
  C   C68       1.0  0.15311  0.45424  0.32849  1.0000
  H   H33       1.0  0.08115  0.43245  0.42584  1.0000
  O  Te9       1.0  0.11691  0.54392  0.06930  1.0000
  O  Te10      1.0  0.20995  0.54236  0.03439  1.0000
  H   H34       1.0  0.16225  0.43106  0.39550  1.0000
  Mg  Mg5       1.0  0.18119  0.57791  0.94361  1.0000
  C   C69       1.0  0.47655  0.64828  0.13099  1.0000
  C   C70       1.0  0.50242  0.68807  0.22632  1.0000
  C  Sn11      1.0  0.53338  0.68443  0.32894  1.0000
  C  Sn12      1.0  0.53848  0.64009  0.33597  1.0000
  C   C71       1.0  0.51246  0.60052  0.24006  1.0000
  C   C72       1.0  0.48157  0.60455  0.13781  1.0000
  H   H35       1.0  0.45266  0.65141  0.05183  1.0000
  O  Te11      1.0  0.55894  0.72452  0.42340  1.0000
  O  Te12      1.0  0.56919  0.63547  0.43746  1.0000
  H   H36       1.0  0.46157  0.57376  0.06396  1.0000
  Mg  Mg6       1.0  0.59633  0.70032  0.54281  1.0000
  C   C73       1.0  0.54188  0.17319  0.40655  1.0000
  C   C74       1.0  0.51431  0.19170  0.33311  1.0000
  C  Sn13      1.0  0.47723  0.16062  0.23548  1.0000
  C  Sn14      1.0  0.46764  0.11008  0.21119  1.0000
  C   C75       1.0  0.49540  0.09191  0.28527  1.0000
  C   C76       1.0  0.53243  0.12334  0.38269  1.0000
  H   H37       1.0  0.57051  0.19749  0.48198  1.0000
  O  Te13      1.0  0.45005  0.17972  0.16298  1.0000
  O  Te14      1.0  0.43079  0.07820  0.11424  1.0000
  H   H38       1.0  0.55375  0.10899  0.43960  1.0000
  Mg  Mg7       1.0  0.40371  0.12164  0.04143  1.0000
  C   C77       1.0  0.85930  0.38827  0.38957  1.0000
  C   C78       1.0  0.89915  0.39965  0.29866  1.0000
  C  Sn15      1.0  0.89435  0.36324  0.20196  1.0000
  C  Sn16      1.0  0.84876  0.31458  0.19641  1.0000
  C   C79       1.0  0.80911  0.30358  0.28775  1.0000
  C   C80       1.0  0.81432  0.34029  0.38413  1.0000
  H   H39       1.0  0.86332  0.41668  0.46410  1.0000
  O  Te15      1.0  0.93453  0.37524  0.11193  1.0000
  O  Te16      1.0  0.84295  0.27749  0.10075  1.0000
  H   H40       1.0  0.78345  0.33148  0.45445  1.0000
  Mg  Mg8       1.0  0.91362  0.31313  0.99988  1.0000
  C   C81       1.0  0.65377  0.53938  0.17560  1.0000
  C   C82       1.0  0.60867  0.51079  0.24968  1.0000
  C  Sn17      1.0  0.60753  0.48048  0.36033  1.0000
  C  Sn18      1.0  0.65244  0.47884  0.39727  1.0000
  C   C83       1.0  0.69738  0.50761  0.32256  1.0000
  C   C84       1.0  0.69809  0.53780  0.21200  1.0000
  H   H41       1.0  0.65433  0.56277  0.09009  1.0000
  O  Te17      1.0  0.56214  0.45214  0.43321  1.0000
  O  Te18      1.0  0.65237  0.44888  0.50744  1.0000
  H   H42       1.0  0.73302  0.55996  0.15471  1.0000
  Mg  Mg9       1.0  0.58119  0.41707  0.57527  1.0000
  C   C85       1.0  0.46767  0.82379  0.30607  1.0000
  C   C86       1.0  0.49263  0.81167  0.20550  1.0000
  C  Sn19      1.0  0.52325  0.84835  0.10851  1.0000
  C  Sn20      1.0  0.52893  0.89806  0.11257  1.0000
  C   C87       1.0  0.50384  0.90982  0.21366  1.0000
  C   C88       1.0  0.47328  0.87282  0.31018  1.0000
  H   H43       1.0  0.44405  0.79518  0.38081  1.0000
  O  Te19      1.0  0.54789  0.83559  0.00870  1.0000
  O  Te20      1.0  0.55932  0.93546  0.01692  1.0000
  H   H44       1.0  0.45399  0.88223  0.38810  1.0000
  Mg  Mg10      1.0  0.59031  0.90082  0.90070  1.0000
  C   C89       1.0  0.10407  0.64452  0.09989  1.0000
  C   C90       1.0  0.09630  0.60259  0.17992  1.0000
  C  Sn21      1.0  0.13493  0.60674  0.26941  1.0000
  C  Sn22      1.0  0.18218  0.65380  0.27875  1.0000
  C   C91       1.0  0.18956  0.69553  0.19832  1.0000
  C   C92       1.0  0.15065  0.69095  0.10908  1.0000
  H   H45       1.0  0.07396  0.64098  0.03089  1.0000
  O  Te21      1.0  0.12654  0.56447  0.34860  1.0000
  O  Te22      1.0  0.22143  0.65901  0.36739  1.0000
  H   H46       1.0  0.15667  0.72343  0.04719  1.0000
  Mg  Mg11      1.0  0.19168  0.59048  0.45420  1.0000
  C   C93       1.0  0.38126  0.53120  0.31088  1.0000
  C   C94       1.0  0.40154  0.50527  0.23994  1.0000
  C  Sn23      1.0  0.37488  0.47385  0.12771  1.0000
  C  Sn24      1.0  0.32703  0.46837  0.08593  1.0000
  C   C95       1.0  0.30708  0.49450  0.15752  1.0000
  C   C96       1.0  0.33408  0.52583  0.26971  1.0000
  H   H47       1.0  0.40215  0.55547  0.39764  1.0000
  O  Te23      1.0  0.39569  0.44821  0.05801  1.0000
  O  Te24      1.0  0.30475  0.43839  0.97408  1.0000
  H   H48       1.0  0.31838  0.54593  0.32456  1.0000
  Mg  Mg12      1.0  0.34899  0.41131  0.91197  1.0000
  C   C97       1.0  0.65012  0.17348  0.67360  1.0000
  C   C98       1.0  0.69287  0.18025  0.74941  1.0000
  C  Sn25      1.0  0.68980  0.14032  0.83017  1.0000
  C  Sn26      1.0  0.64301  0.09276  0.83490  1.0000
  C   C99       1.0  0.60047  0.08636  0.75860  1.0000
  C   C100      1.0  0.60396  0.12658  0.67816  1.0000
  H   H49       1.0  0.65283  0.20459  0.61130  1.0000
  O  Te25      1.0  0.73287  0.14774  0.90531  1.0000
  O  Te26      1.0  0.63888  0.05220  0.91473  1.0000
  H   H50       1.0  0.57086  0.12132  0.61940  1.0000
  Mg  Mg13      1.0  0.70820  0.08097  0.99891  1.0000
  C   C101      1.0  0.87758  0.55915  0.82739  1.0000
  C   C102      1.0  0.83201  0.53373  0.75025  1.0000
  C  Sn27      1.0  0.82231  0.49216  0.66635  1.0000
  C  Sn28      1.0  0.85898  0.47580  0.65981  1.0000
  C   C103      1.0  0.90443  0.50146  0.73747  1.0000
  C   C104      1.0  0.91376  0.54303  0.82104  1.0000
  H   H51       1.0  0.88479  0.59130  0.89212  1.0000
  O  Te27      1.0  0.77659  0.46720  0.58992  1.0000
  O  Te28      1.0  0.85025  0.43435  0.57685  1.0000
  H   H52       1.0  0.94903  0.56268  0.88083  1.0000
  Mg  Mg14      1.0  0.78221  0.41271  0.49195  1.0000
  C   C105      1.0  0.44641  0.34734  0.85609  1.0000
  C   C106      1.0  0.48278  0.39048  0.78473  1.0000
  C  Sn29      1.0  0.51611  0.38639  0.69393  1.0000
  C  Sn30      1.0  0.51287  0.33816  0.67440  1.0000
  C   C107      1.0  0.47634  0.29522  0.74620  1.0000
  C   C108      1.0  0.44318  0.29975  0.83684  1.0000
  H   H53       1.0  0.42074  0.35084  0.92617  1.0000
  O  Te29      1.0  0.55222  0.42988  0.62350  1.0000
  O  Te30      1.0  0.54570  0.33298  0.58424  1.0000
  H   H54       1.0  0.41501  0.26634  0.89201  1.0000
  Mg  Mg15      1.0  0.58851  0.40340  0.51180  1.0000
  C   C109      1.0  0.37642  0.85346  0.63798  1.0000
  C   C110      1.0  0.39575  0.89913  0.71294  1.0000
  C  Sn31      1.0  0.36644  0.90378  0.81596  1.0000
  C  Sn32      1.0  0.31688  0.86187  0.84425  1.0000
  C   C111      1.0  0.29791  0.81634  0.76875  1.0000
  C   C112      1.0  0.32755  0.81210  0.66586  1.0000
  H   H55       1.0  0.39937  0.85017  0.55843  1.0000
  O  Te31      1.0  0.38633  0.94969  0.88983  1.0000
  O  Te32      1.0  0.28678  0.86548  0.94668  1.0000
  H   H56       1.0  0.31259  0.77673  0.60790  1.0000
  Mg  Mg16      1.0  0.32553  0.93481  0.01933  1.0000
  C   C113      1.0  0.13058  0.45684  0.85383  1.0000
  C   C114      1.0  0.17173  0.47691  0.76313  1.0000
  C  Sn33      1.0  0.17375  0.50841  0.65455  1.0000
  C  Sn34      1.0  0.13379  0.51998  0.63674  1.0000
  C   C115      1.0  0.09280  0.49974  0.72810  1.0000
  C   C116      1.0  0.09115  0.46824  0.83637  1.0000
  H   H57       1.0  0.12931  0.43250  0.93765  1.0000
  O  Te33      1.0  0.21513  0.52813  0.56485  1.0000
  O  Te34      1.0  0.13486  0.55138  0.52914  1.0000
  H   H58       1.0  0.05931  0.45274  0.90664  1.0000
  Mg  Mg17      1.0  0.19933  0.56905  0.43382  1.0000
  C   C117      1.0  0.54016  0.67346  0.86455  1.0000
  C   C118      1.0  0.52053  0.69467  0.77041  1.0000
  C  Sn35      1.0  0.49042  0.66564  0.65862  1.0000
  C  Sn36      1.0  0.47983  0.61444  0.64103  1.0000
  C   C119      1.0  0.49962  0.59357  0.73582  1.0000
  C   C120      1.0  0.52972  0.62296  0.84730  1.0000
  H   H59       1.0  0.56343  0.69618  0.95084  1.0000
  O  Te35      1.0  0.47112  0.68743  0.56551  1.0000
  O  Te36      1.0  0.44983  0.58458  0.53024  1.0000
  H   H60       1.0  0.54489  0.60651  0.92022  1.0000
  Mg  Mg18      1.0  0.43222  0.63137  0.43093  1.0000
  C   C121      1.0  0.53831  0.17150  0.90472  1.0000
  C   C122      1.0  0.51122  0.18991  0.82855  1.0000
  C  Sn37      1.0  0.47595  0.15928  0.72680  1.0000
  C  Sn38      1.0  0.46771  0.10931  0.70108  1.0000
  C   C123      1.0  0.49497  0.09124  0.77790  1.0000
  C   C124      1.0  0.53019  0.12221  0.87945  1.0000
  H   H61       1.0  0.56553  0.19545  0.98334  1.0000
  O  Te37      1.0  0.44924  0.17828  0.65162  1.0000
  O  Te38      1.0  0.43267  0.07789  0.60002  1.0000
  H   H62       1.0  0.55112  0.10793  0.93847  1.0000
  Mg  Mg19      1.0  0.40555  0.12096  0.52474  1.0000
  C   C125      1.0  0.88904  0.34589  0.70110  1.0000
  C   C126      1.0  0.90154  0.39455  0.74910  1.0000
  C  Sn39      1.0  0.86793  0.40039  0.83477  1.0000
  C  Sn40      1.0  0.82099  0.35663  0.87295  1.0000
  C   C127      1.0  0.80885  0.30810  0.82446  1.0000
  C   C128      1.0  0.84275  0.30270  0.73875  1.0000
  H   H63       1.0  0.91527  0.34170  0.63484  1.0000
  O  Te39      1.0  0.88101  0.44930  0.88176  1.0000
  O  Te40      1.0  0.78671  0.36136  0.95849  1.0000
  H   H64       1.0  0.83308  0.26501  0.70168  1.0000
  Mg  Mg20      1.0  0.82170  0.43609  0.99610  1.0000
  C   C129      1.0  0.67631  0.54061  0.69775  1.0000
  C   C130      1.0  0.69057  0.51282  0.78531  1.0000
  C  Sn41      1.0  0.65430  0.47472  0.87037  1.0000
  C  Sn42      1.0  0.60283  0.46432  0.86745  1.0000
  C   C131      1.0  0.58894  0.49231  0.77941  1.0000
  C   C132      1.0  0.62554  0.53037  0.69477  1.0000
  H   H65       1.0  0.70462  0.57004  0.63220  1.0000
  O  Te41      1.0  0.66921  0.44732  0.95728  1.0000
  O  Te42      1.0  0.56580  0.42643  0.95134  1.0000
  H   H66       1.0  0.61448  0.55186  0.62692  1.0000
  Mg  Mg21      1.0  0.59966  0.39829  0.05227  1.0000
  C   C133      1.0  0.46513  0.84714  0.81063  1.0000
  C   C134      1.0  0.49244  0.89397  0.74194  1.0000
  C  Sn43      1.0  0.52443  0.89902  0.63305  1.0000
  C  Sn44      1.0  0.52906  0.85633  0.59239  1.0000
  C   C135      1.0  0.50154  0.80964  0.66170  1.0000
  C   C136      1.0  0.46966  0.80501  0.77055  1.0000
  H   H67       1.0  0.44043  0.84355  0.89480  1.0000
  O  Te43      1.0  0.55146  0.94609  0.56557  1.0000
  O  Te44      1.0  0.56075  0.86031  0.48387  1.0000
  H   H68       1.0  0.44849  0.76874  0.82366  1.0000
  Mg  Mg22      1.0  0.58978  0.93248  0.42382  1.0000
  C   C137      1.0  0.10719  0.64303  0.57777  1.0000
  C   C138      1.0  0.09599  0.60392  0.67276  1.0000
  C  Sn45      1.0  0.13084  0.61119  0.77877  1.0000
  C  Sn46      1.0  0.17773  0.65854  0.78964  1.0000
  C   C139      1.0  0.18855  0.69743  0.69415  1.0000
  C   C140      1.0  0.15342  0.68974  0.58845  1.0000
  H   H69       1.0  0.07999  0.63709  0.49603  1.0000
  O  Te45      1.0  0.11905  0.57171  0.87276  1.0000
  O  Te46      1.0  0.21323  0.66683  0.89461  1.0000
  H   H70       1.0  0.16208  0.72004  0.51498  1.0000
  Mg  Mg23      1.0  0.17975  0.60139  0.99775  1.0000
  C   C141      1.0  0.38067  0.53388  0.80439  1.0000
  C   C142      1.0  0.39940  0.50562  0.73816  1.0000
  C  Sn47      1.0  0.37108  0.47182  0.63144  1.0000
  C  Sn48      1.0  0.32316  0.46632  0.59045  1.0000
  C   C143      1.0  0.30478  0.49480  0.65729  1.0000
  C   C144      1.0  0.33341  0.52849  0.76400  1.0000
  H   H71       1.0  0.40284  0.55998  0.88690  1.0000
  O  Te47      1.0  0.39035  0.44386  0.56641  1.0000
  O  Te48      1.0  0.29408  0.43283  0.48406  1.0000
  H   H72       1.0  0.31892  0.55040  0.81519  1.0000
  Mg  Mg24      1.0  0.33658  0.40310  0.42696  1.0000
