data_image0
_chemical_formula_structural       H16C32N8SnCSn2CSnTe4Mg2SnCSn2CSnTe4Mg2SnCSn2CSnTe4Mg2SnCSn2CSnTe4Mg2SnCSn2CSnTe4Mg2SnCSn2CSnTe4Mg2SnCSn2CSnTe4Mg2SnCSn2CSnTe4Mg2SnCSn2CSnTe4Mg2SnCSn2CSnTe4Mg2SnCSn2CSnTe4Mg2SnCSn2CSnTe4Mg2SnCSn2CSnTe4Mg2SnCSn2CSnTe4Mg2SnCSn2CSnTe4Mg2SnCSn2CSnTe4Mg2
_chemical_formula_sum              "H16 C64 N8 Sn64 Te64 Mg32"
_cell_length_a       17.2894
_cell_length_b       24.7052
_cell_length_c       10.1888
_cell_angle_alpha    89.8727
_cell_angle_beta     105.048
_cell_angle_gamma    90.0281

_symmetry_space_group_name_H-M    'P1'
_space_group_IT_number       1

loop_
  _space_group_symop_operation_xyz
  'x, y, z'

loop_
  _atom_site_type_symbol
  _atom_site_label
  _atom_site_symmetry_multiplicity
  _atom_site_fract_x
  _atom_site_fract_y
  _atom_site_fract_z
  _atom_site_occupancy
  H   H1        1.0  0.72847  0.22900  0.38314  1.0000
  H   H2        1.0  0.28787  0.22389  0.11456  1.0000
  H   H3        1.0  0.26549  0.76952  0.12324  1.0000
  H   H4        1.0  0.73886  0.77007  0.40191  1.0000
  H   H5        1.0  0.35531  0.50048  0.21478  1.0000
  H   H6        1.0  0.64739  0.50248  0.28049  1.0000
  H   H7        1.0  0.85423  0.00105  0.20937  1.0000
  H   H8        1.0  0.14553  0.00136  0.27421  1.0000
  H   H9        1.0  0.71843  0.22460  0.88264  1.0000
  H   H10       1.0  0.25179  0.23568  0.59212  1.0000
  H   H11       1.0  0.29342  0.77765  0.65837  1.0000
  H   H12       1.0  0.73455  0.76727  0.88811  1.0000
  H   H13       1.0  0.35449  0.50054  0.73006  1.0000
  H   H14       1.0  0.64447  0.49685  0.77461  1.0000
  H   H15       1.0  0.85254  0.99745  0.72190  1.0000
  H   H16       1.0  0.14278  0.99982  0.76934  1.0000
  C   C1        1.0  0.54279  0.55176  0.25894  1.0000
  C   C2        1.0  0.45899  0.55117  0.24451  1.0000
  C   C3        1.0  0.45989  0.45094  0.23872  1.0000
  C   C4        1.0  0.54406  0.45174  0.25626  1.0000
  C   C5        1.0  0.72960  0.25556  0.29674  1.0000
  C   C6        1.0  0.27456  0.25384  0.18536  1.0000
  C   C7        1.0  0.26793  0.74463  0.21398  1.0000
  C   C8        1.0  0.73506  0.74547  0.31059  1.0000
  C   C9        1.0  0.04175  0.05132  0.24976  1.0000
  C   C10       1.0  0.95789  0.05156  0.23620  1.0000
  C   C11       1.0  0.95828  0.95101  0.23968  1.0000
  C   C12       1.0  0.04233  0.95099  0.25525  1.0000
  C   C13       1.0  0.42019  0.50082  0.23385  1.0000
  C   C14       1.0  0.58262  0.50202  0.26370  1.0000
  C   C15       1.0  0.91915  0.00121  0.22929  1.0000
  C   C16       1.0  0.08081  0.00121  0.25826  1.0000
  C   C17       1.0  0.54257  0.54832  0.75755  1.0000
  C   C18       1.0  0.45918  0.54941  0.74800  1.0000
  C   C19       1.0  0.45619  0.44936  0.74356  1.0000
  C   C20       1.0  0.53947  0.44830  0.75380  1.0000
  C   C21       1.0  0.72609  0.25241  0.80255  1.0000
  C   C22       1.0  0.25781  0.25850  0.68699  1.0000
  C   C23       1.0  0.28046  0.74755  0.72937  1.0000
  C   C24       1.0  0.73682  0.74040  0.80331  1.0000
  C   C25       1.0  0.03805  0.04934  0.74744  1.0000
  C   C26       1.0  0.95475  0.04814  0.73844  1.0000
  C   C27       1.0  0.95717  0.94806  0.74372  1.0000
  C   C28       1.0  0.04075  0.94913  0.75617  1.0000
  C   C29       1.0  0.41886  0.49981  0.74232  1.0000
  C   C30       1.0  0.57989  0.49782  0.75985  1.0000
  C   C31       1.0  0.91709  0.99780  0.73618  1.0000
  C   C32       1.0  0.07825  0.99949  0.75597  1.0000
  N   N1        1.0  0.77059  0.75869  0.21786  1.0000
  N   N2        1.0  0.23165  0.75809  0.30533  1.0000
  N   N3        1.0  0.22486  0.24514  0.25882  1.0000
  N   N4        1.0  0.76910  0.24379  0.20876  1.0000
  N   N5        1.0  0.77679  0.75227  0.71582  1.0000
  N   N6        1.0  0.23101  0.75661  0.80300  1.0000
  N   N7        1.0  0.22395  0.24336  0.78034  1.0000
  N   N8        1.0  0.77021  0.24147  0.72099  1.0000
  C  Sn1       1.0  0.66680  0.65214  0.16634  1.0000
  C   C33       1.0  0.67163  0.69485  0.25782  1.0000
  C  Sn2       1.0  0.64100  0.68907  0.37117  1.0000
  C  Sn3       1.0  0.60483  0.63956  0.39360  1.0000
  C   C34       1.0  0.60003  0.59688  0.30217  1.0000
  C  Sn4       1.0  0.63064  0.60262  0.18877  1.0000
  O  Te1       1.0  0.69783  0.65881  0.05372  1.0000
  O  Te2       1.0  0.64649  0.73235  0.46118  1.0000
  O  Te3       1.0  0.57379  0.63291  0.50633  1.0000
  O  Te4       1.0  0.62517  0.55938  0.09881  1.0000
  Mg  Mg1       1.0  0.59553  0.70357  0.59987  1.0000
  Mg  Mg2       1.0  0.82914  0.58723  0.96013  1.0000
  C  Sn5       1.0  0.32356  0.60669  0.28766  1.0000
  C   C35       1.0  0.38241  0.59614  0.21952  1.0000
  C  Sn6       1.0  0.41400  0.63817  0.15751  1.0000
  C  Sn7       1.0  0.38622  0.69187  0.16379  1.0000
  C   C36       1.0  0.32741  0.70239  0.23191  1.0000
  C  Sn8       1.0  0.29578  0.66038  0.29393  1.0000
  O  Te5       1.0  0.29283  0.56405  0.34893  1.0000
  O  Te6       1.0  0.47277  0.62663  0.08995  1.0000
  O  Te7       1.0  0.41700  0.73451  0.10244  1.0000
  O  Te8       1.0  0.23705  0.67191  0.36148  1.0000
  Mg  Mg3       1.0  0.49618  0.69841  0.02244  1.0000
  Mg  Mg4       1.0  0.21364  0.60017  0.42908  1.0000
  C  Sn9       1.0  0.34936  0.38136  0.31735  1.0000
  C   C37       1.0  0.41250  0.39338  0.25991  1.0000
  C  Sn10      1.0  0.42505  0.36221  0.15309  1.0000
  C  Sn11      1.0  0.37339  0.31813  0.10255  1.0000
  C   C38       1.0  0.31028  0.30614  0.15996  1.0000
  C  Sn12      1.0  0.29769  0.33728  0.26682  1.0000
  O  Te9       1.0  0.33792  0.41307  0.42407  1.0000
  O  Te10      1.0  0.48859  0.37500  0.09734  1.0000
  O  Te11      1.0  0.53788  0.28556  0.99576  1.0000
  O  Te12      1.0  0.23419  0.32452  0.32253  1.0000
  Mg  Mg5       1.0  0.63265  0.31900  0.95343  1.0000
  Mg  Mg6       1.0  0.24306  0.37964  0.46640  1.0000
  C  Sn13      1.0  0.64255  0.37974  0.15723  1.0000
  C   C39       1.0  0.58933  0.39438  0.23345  1.0000
  C  Sn14      1.0  0.58898  0.36634  0.35250  1.0000
  C  Sn15      1.0  0.64297  0.32278  0.39634  1.0000
  C   C40       1.0  0.69616  0.30816  0.32016  1.0000
  C  Sn16      1.0  0.69654  0.33617  0.20107  1.0000
  O  Te13      1.0  0.64186  0.40834  0.03855  1.0000
  O  Te14      1.0  0.53521  0.38172  0.42697  1.0000
  O  Te15      1.0  0.64362  0.29418  0.51513  1.0000
  O  Te16      1.0  0.75028  0.32083  0.12664  1.0000
  Mg  Mg7       1.0  0.55905  0.33037  0.58175  1.0000
  Mg  Mg8       1.0  0.87953  0.37129  0.97189  1.0000
  C  Sn17      1.0  0.16252  0.14680  0.13257  1.0000
  C   C41       1.0  0.16843  0.19288  0.21390  1.0000
  C  Sn18      1.0  0.14065  0.19193  0.33096  1.0000
  C  Sn19      1.0  0.10627  0.14391  0.36755  1.0000
  C   C42       1.0  0.10039  0.09787  0.28625  1.0000
  C  Sn20      1.0  0.12815  0.09879  0.16915  1.0000
  O  Te17      1.0  0.19069  0.14867  0.01599  1.0000
  O  Te18      1.0  0.14718  0.23850  0.41064  1.0000
  O  Te19      1.0  0.07809  0.14208  0.48423  1.0000
  O  Te20      1.0  0.12164  0.05225  0.08951  1.0000
  Mg  Mg9       1.0  0.10026  0.21588  0.55990  1.0000
  Mg  Mg10      1.0  0.32158  0.07395  0.94028  1.0000
  C  Sn21      1.0  0.92989  0.16507  0.18517  1.0000
  C   C43       1.0  0.92317  0.11486  0.24469  1.0000
  C  Sn22      1.0  0.85376  0.10150  0.28354  1.0000
  C  Sn23      1.0  0.78971  0.13910  0.26238  1.0000
  C   C44       1.0  0.79645  0.18927  0.20287  1.0000
  C  Sn24      1.0  0.86584  0.20266  0.16401  1.0000
  O  Te21      1.0  0.99983  0.17756  0.14711  1.0000
  O  Te22      1.0  0.84844  0.05107  0.34290  1.0000
  O  Te23      1.0  0.71974  0.12656  0.30050  1.0000
  O  Te24      1.0  0.87117  0.25306  0.10466  1.0000
  Mg  Mg11      1.0  0.74094  0.05277  0.37744  1.0000
  Mg  Mg12      1.0  0.97862  0.25139  0.07002  1.0000
  C  Sn25      1.0  0.85451  0.88443  0.34346  1.0000
  C   C45       1.0  0.91250  0.89405  0.27285  1.0000
  C  Sn26      1.0  0.91663  0.86129  0.16330  1.0000
  C  Sn27      1.0  0.86162  0.81804  0.12343  1.0000
  C   C46       1.0  0.80366  0.80845  0.19401  1.0000
  C  Sn28      1.0  0.79950  0.84118  0.30360  1.0000
  O  Te25      1.0  0.85148  0.91770  0.45266  1.0000
  O  Te26      1.0  0.97515  0.87168  0.09429  1.0000
  O  Te27      1.0  0.86469  0.78477  0.01413  1.0000
  O  Te28      1.0  0.74101  0.83082  0.37257  1.0000
  Mg  Mg13      1.0  0.10814  0.81426  0.95207  1.0000
  Mg  Mg14      1.0  0.76094  0.88736  0.51475  1.0000
  C  Sn29      1.0  0.20998  0.86990  0.23799  1.0000
  C   C47       1.0  0.20629  0.82246  0.31107  1.0000
  C  Sn30      1.0  0.13905  0.81130  0.35848  1.0000
  C  Sn31      1.0  0.07413  0.84832  0.33223  1.0000
  C   C48       1.0  0.07784  0.89572  0.25917  1.0000
  C  Sn32      1.0  0.14506  0.90692  0.21173  1.0000
  O  Te29      1.0  0.27779  0.88023  0.19155  1.0000
  O  Te30      1.0  0.13675  0.76362  0.43136  1.0000
  O  Te31      1.0  0.00630  0.83795  0.37874  1.0000
  O  Te32      1.0  0.14738  0.95456  0.13888  1.0000
  Mg  Mg15      1.0  0.03132  0.76755  0.47334  1.0000
  Mg  Mg16      1.0  0.25275  0.95066  0.09679  1.0000
  C  Sn33      1.0  0.68100  0.60300  0.72376  1.0000
  C   C49       1.0  0.62065  0.59196  0.78845  1.0000
  C  Sn34      1.0  0.58926  0.63335  0.85236  1.0000
  C  Sn35      1.0  0.61877  0.68690  0.85155  1.0000
  C   C50       1.0  0.67906  0.69791  0.78687  1.0000
  C  Sn36      1.0  0.71050  0.65654  0.72295  1.0000
  O  Te33      1.0  0.71149  0.56099  0.66050  1.0000
  O  Te34      1.0  0.52898  0.62133  0.91640  1.0000
  O  Te35      1.0  0.58822  0.72891  0.91488  1.0000
  O  Te36      1.0  0.77073  0.66854  0.65892  1.0000
  Mg  Mg17      1.0  0.50658  0.69232  0.98852  1.0000
  Mg  Mg18      1.0  0.79315  0.59759  0.58672  1.0000
  C  Sn37      1.0  0.32693  0.60782  0.79482  1.0000
  C   C51       1.0  0.38452  0.59593  0.72498  1.0000
  C  Sn38      1.0  0.41774  0.63722  0.66316  1.0000
  C  Sn39      1.0  0.39291  0.69153  0.67138  1.0000
  C   C52       1.0  0.33537  0.70341  0.74120  1.0000
  C  Sn40      1.0  0.30211  0.66214  0.80304  1.0000
  O  Te37      1.0  0.29454  0.56591  0.85585  1.0000
  O  Te38      1.0  0.47519  0.62433  0.59387  1.0000
  O  Te39      1.0  0.42536  0.73346  0.61026  1.0000
  O  Te40      1.0  0.24470  0.67501  0.87231  1.0000
  Mg  Mg19      1.0  0.50177  0.69554  0.52746  1.0000
  Mg  Mg20      1.0  0.21812  0.60383  0.93882  1.0000
  C  Sn41      1.0  0.36114  0.37496  0.84547  1.0000
  C   C53       1.0  0.41072  0.39112  0.76391  1.0000
  C  Sn42      1.0  0.40297  0.36744  0.63677  1.0000
  C  Sn43      1.0  0.34439  0.32678  0.59013  1.0000
  C   C54       1.0  0.29484  0.31065  0.67165  1.0000
  C  Sn44      1.0  0.30256  0.33430  0.79882  1.0000
  O  Te41      1.0  0.36994  0.39919  0.97221  1.0000
  O  Te42      1.0  0.45325  0.38425  0.55708  1.0000
  O  Te43      1.0  0.33562  0.30256  0.46327  1.0000
  O  Te44      1.0  0.25232  0.31751  0.87848  1.0000
  Mg  Mg21      1.0  0.41815  0.33916  0.39187  1.0000
  Mg  Mg22      1.0  0.13433  0.36346  0.04366  1.0000
  C  Sn45      1.0  0.60072  0.35127  0.89303  1.0000
  C   C55       1.0  0.60112  0.39588  0.80862  1.0000
  C  Sn46      1.0  0.63804  0.39251  0.70214  1.0000
  C  Sn47      1.0  0.67529  0.34353  0.67950  1.0000
  C   C56       1.0  0.67487  0.29896  0.76387  1.0000
  C  Sn48      1.0  0.63797  0.30229  0.87039  1.0000
  O  Te45      1.0  0.56345  0.35555  0.99886  1.0000
  O  Te46      1.0  0.63769  0.43765  0.61913  1.0000
  O  Te47      1.0  0.71258  0.33928  0.57357  1.0000
  O  Te48      1.0  0.63829  0.25718  0.95335  1.0000
  Mg  Mg23      1.0  0.69627  0.41185  0.48813  1.0000
  Mg  Mg24      1.0  0.42670  0.28379  0.08433  1.0000
  C  Sn49      1.0  0.12272  0.17722  0.87409  1.0000
  C   C57       1.0  0.18356  0.18727  0.80985  1.0000
  C  Sn50      1.0  0.19179  0.15457  0.70263  1.0000
  C  Sn51      1.0  0.13806  0.11092  0.65862  1.0000
  C   C58       1.0  0.07726  0.10089  0.72283  1.0000
  C  Sn52      1.0  0.06899  0.13357  0.83009  1.0000
  O  Te49      1.0  0.11561  0.21043  0.98108  1.0000
  O  Te50      1.0  0.25309  0.16541  0.64002  1.0000
  O  Te51      1.0  0.14522  0.07770  0.55155  1.0000
  O  Te52      1.0  0.00772  0.12276  0.89267  1.0000
  Mg  Mg25      1.0  0.23831  0.10874  0.49858  1.0000
  Mg  Mg26      1.0  0.86942  0.18028  0.03406  1.0000
  C  Sn53      1.0  0.82852  0.10534  0.80764  1.0000
  C   C59       1.0  0.87788  0.09279  0.72294  1.0000
  C  Sn54      1.0  0.90064  0.13300  0.64391  1.0000
  C  Sn55      1.0  0.87356  0.18691  0.64970  1.0000
  C   C60       1.0  0.82425  0.19945  0.73438  1.0000
  C  Sn56      1.0  0.80144  0.15925  0.81344  1.0000
  O  Te53      1.0  0.80651  0.06450  0.88577  1.0000
  O  Te54      1.0  0.95000  0.11946  0.55997  1.0000
  O  Te55      1.0  0.89561  0.22776  0.57148  1.0000
  O  Te56      1.0  0.75212  0.17277  0.89736  1.0000
  Mg  Mg27      1.0  0.96371  0.18928  0.47293  1.0000
  Mg  Mg28      1.0  0.73841  0.10299  0.98449  1.0000
  C  Sn57      1.0  0.79475  0.86468  0.77444  1.0000
  C   C61       1.0  0.79978  0.81650  0.70549  1.0000
  C  Sn58      1.0  0.86679  0.80574  0.65722  1.0000
  C  Sn59      1.0  0.93011  0.84391  0.67840  1.0000
  C   C62       1.0  0.92507  0.89204  0.74734  1.0000
  C  Sn60      1.0  0.85808  0.90284  0.79562  1.0000
  O  Te57      1.0  0.72720  0.87459  0.82182  1.0000
  O  Te58      1.0  0.87044  0.75731  0.58853  1.0000
  O  Te59      1.0  0.99769  0.83396  0.63095  1.0000
  O  Te60      1.0  0.85441  0.95123  0.86429  1.0000
  Mg  Mg29      1.0  0.97490  0.76221  0.54332  1.0000
  Mg  Mg30      1.0  0.75001  0.94636  0.90961  1.0000
  C  Sn61      1.0  0.20026  0.86555  0.71309  1.0000
  C   C63       1.0  0.20467  0.82069  0.79852  1.0000
  C  Sn62      1.0  0.14579  0.81199  0.86771  1.0000
  C  Sn63      1.0  0.08111  0.84888  0.85110  1.0000
  C   C64       1.0  0.07671  0.89370  0.76569  1.0000
  C  Sn64      1.0  0.13558  0.90243  0.69648  1.0000
  O  Te61      1.0  0.25979  0.87344  0.64491  1.0000
  O  Te62      1.0  0.15151  0.76686  0.95260  1.0000
  O  Te63      1.0  0.02156  0.84095  0.91937  1.0000
  O  Te64      1.0  0.12987  0.94752  0.61161  1.0000
  Mg  Mg31      1.0  0.90266  0.77439  0.02362  1.0000
  Mg  Mg32      1.0  0.22565  0.94088  0.54050  1.0000
