data_image0
_chemical_formula_structural       H24C48N12C2Sn2C2HTe2HMgC2Sn2C2HTe2HMgC2Sn2C2HTe2HMgC2Sn2C2HTe2HMgC2Sn2C2HTe2HMgC2Sn2C2HTe2HMgC2Sn2C2HTe2HMgC2Sn2C2HTe2HMgC2Sn2C2HTe2HMgC2Sn2C2HTe2HMgC2Sn2C2HTe2HMgC2Sn2C2HTe2HMgC2Sn2C2HTe2HMgC2Sn2C2HTe2HMgC2Sn2C2HTe2HMgC2Sn2C2HTe2HMgC2Sn2C2HTe2HMgC2Sn2C2HTe2HMgC2Sn2C2HTe2HMgC2Sn2C2HTe2HMgC2Sn2C2HTe2HMgC2Sn2C2HTe2HMgC2Sn2C2HTe2HMgC2Sn2C2HTe2HMg
_chemical_formula_sum              "H72 C144 N12 Sn48 Te48 Mg24"
_cell_length_a       30.0867
_cell_length_b       30.0711
_cell_length_c       8.98068
_cell_angle_alpha    91.5843
_cell_angle_beta     88.1734
_cell_angle_gamma    120.056

_symmetry_space_group_name_H-M    'P1'
_space_group_IT_number       1

loop_
  _space_group_symop_operation_xyz
  'x, y, z'

loop_
  _atom_site_type_symbol
  _atom_site_label
  _atom_site_symmetry_multiplicity
  _atom_site_fract_x
  _atom_site_fract_y
  _atom_site_fract_z
  _atom_site_occupancy
  H   H1        1.0  0.42292  0.00660  0.25615  1.0000
  H   H2        1.0  0.99453  0.41529  0.23773  1.0000
  H   H3        1.0  0.58610  0.57988  0.27335  1.0000
  H   H4        1.0  0.57810  0.99190  0.24204  1.0000
  H   H5        1.0  0.00663  0.58387  0.24553  1.0000
  H   H6        1.0  0.41796  0.42179  0.26282  1.0000
  H   H7        1.0  0.73009  0.26157  0.32676  1.0000
  H   H8        1.0  0.74125  0.47252  0.32951  1.0000
  H   H9        1.0  0.53543  0.27090  0.35265  1.0000
  H   H10       1.0  0.27013  0.73792  0.33770  1.0000
  H   H11       1.0  0.26498  0.53650  0.30377  1.0000
  H   H12       1.0  0.48758  0.74072  0.38683  1.0000
  H   H13       1.0  0.42338  0.00708  0.75583  1.0000
  H   H14       1.0  0.99268  0.41811  0.73632  1.0000
  H   H15       1.0  0.58112  0.57647  0.73308  1.0000
  H   H16       1.0  0.57899  0.99360  0.74725  1.0000
  H   H17       1.0  0.00558  0.58711  0.74348  1.0000
  H   H18       1.0  0.41313  0.41951  0.74814  1.0000
  H   H19       1.0  0.72968  0.26349  0.81625  1.0000
  H   H20       1.0  0.73669  0.46961  0.81870  1.0000
  H   H21       1.0  0.53150  0.27010  0.85161  1.0000
  H   H22       1.0  0.26864  0.73929  0.83050  1.0000
  H   H23       1.0  0.25857  0.52917  0.82278  1.0000
  H   H24       1.0  0.46843  0.73056  0.83747  1.0000
  C   C1        1.0  0.55026  0.04489  0.24886  1.0000
  C   C2        1.0  0.95476  0.50309  0.23870  1.0000
  C   C3        1.0  0.49906  0.45174  0.26470  1.0000
  C   C4        1.0  0.45083  0.95374  0.25281  1.0000
  C   C5        1.0  0.04666  0.49626  0.24114  1.0000
  C   C6        1.0  0.50519  0.54973  0.26363  1.0000
  C   C7        1.0  0.50508  0.04890  0.25275  1.0000
  C   C8        1.0  0.95121  0.45406  0.23876  1.0000
  C   C9        1.0  0.54776  0.49759  0.26787  1.0000
  C   C10       1.0  0.49603  0.94981  0.24824  1.0000
  C   C11       1.0  0.04999  0.54526  0.24567  1.0000
  C   C12       1.0  0.45630  0.50408  0.26130  1.0000
  C   C13       1.0  0.45733  0.00333  0.25347  1.0000
  C   C14       1.0  0.99726  0.45275  0.23885  1.0000
  C   C15       1.0  0.54890  0.54481  0.27044  1.0000
  C   C16       1.0  0.54377  0.99533  0.24557  1.0000
  C   C17       1.0  0.00401  0.54647  0.24330  1.0000
  C   C18       1.0  0.45519  0.45684  0.26399  1.0000
  C   C19       1.0  0.76251  0.25861  0.27720  1.0000
  C   C20       1.0  0.74263  0.50410  0.26637  1.0000
  C   C21       1.0  0.50347  0.24019  0.28947  1.0000
  C   C22       1.0  0.23793  0.74078  0.29330  1.0000
  C   C23       1.0  0.26208  0.50040  0.26139  1.0000
  C   C24       1.0  0.50423  0.76243  0.28343  1.0000
  C   C25       1.0  0.55079  0.04617  0.75092  1.0000
  C   C26       1.0  0.95328  0.50618  0.73787  1.0000
  C   C27       1.0  0.49419  0.44900  0.74836  1.0000
  C   C28       1.0  0.45151  0.95454  0.75403  1.0000
  C   C29       1.0  0.04490  0.49898  0.74131  1.0000
  C   C30       1.0  0.50020  0.54736  0.73706  1.0000
  C   C31       1.0  0.50541  0.04992  0.75460  1.0000
  C   C32       1.0  0.94965  0.45711  0.73634  1.0000
  C   C33       1.0  0.54302  0.49486  0.74467  1.0000
  C   C34       1.0  0.49688  0.95079  0.75206  1.0000
  C   C35       1.0  0.04839  0.54798  0.74418  1.0000
  C   C36       1.0  0.45136  0.50150  0.74271  1.0000
  C   C37       1.0  0.45792  0.00407  0.75449  1.0000
  C   C38       1.0  0.99551  0.45561  0.73773  1.0000
  C   C39       1.0  0.54375  0.54173  0.73761  1.0000
  C   C40       1.0  0.54444  0.99663  0.74965  1.0000
  C   C41       1.0  0.00261  0.54954  0.74161  1.0000
  C   C42       1.0  0.45050  0.45442  0.74651  1.0000
  C   C43       1.0  0.76223  0.26081  0.76672  1.0000
  C   C44       1.0  0.73924  0.50388  0.76881  1.0000
  C   C45       1.0  0.49796  0.23808  0.79762  1.0000
  C   C46       1.0  0.23696  0.74256  0.78425  1.0000
  C   C47       1.0  0.25598  0.49512  0.76537  1.0000
  C   C48       1.0  0.50086  0.76100  0.77417  1.0000
  N   N1        1.0  0.75641  0.21451  0.23550  1.0000
  N   N2        1.0  0.78478  0.53776  0.20250  1.0000
  N   N3        1.0  0.46976  0.24820  0.22986  1.0000
  N   N4        1.0  0.24438  0.78472  0.25470  1.0000
  N   N5        1.0  0.21822  0.46221  0.22322  1.0000
  N   N6        1.0  0.52187  0.74508  0.17832  1.0000
  N   N7        1.0  0.75637  0.21681  0.72456  1.0000
  N   N8        1.0  0.78275  0.54053  0.72000  1.0000
  N   N9        1.0  0.46172  0.24433  0.74813  1.0000
  N   N10       1.0  0.24418  0.78662  0.74384  1.0000
  N   N11       1.0  0.21299  0.46002  0.71183  1.0000
  N   N12       1.0  0.53521  0.75269  0.71078  1.0000
  C   C49       1.0  0.65626  0.09309  0.33501  1.0000
  C   C50       1.0  0.61239  0.08899  0.27247  1.0000
  C  Sn1       1.0  0.61646  0.12749  0.17984  1.0000
  C  Sn2       1.0  0.66540  0.17084  0.14944  1.0000
  C   C51       1.0  0.70905  0.17456  0.21247  1.0000
  C   C52       1.0  0.70454  0.13582  0.30503  1.0000
  H   H25       1.0  0.65278  0.06310  0.40657  1.0000
  O  Te1       1.0  0.57224  0.12280  0.11832  1.0000
  O  Te2       1.0  0.67056  0.20986  0.05721  1.0000
  H   H26       1.0  0.73851  0.13898  0.35336  1.0000
  Mg  Mg1       1.0  0.59183  0.19069  0.99963  1.0000
  C   C53       1.0  0.83330  0.48118  0.11833  1.0000
  C   C54       1.0  0.82421  0.51703  0.19496  1.0000
  C  Sn3       1.0  0.86116  0.55346  0.28991  1.0000
  C  Sn4       1.0  0.90806  0.55392  0.30822  1.0000
  C   C55       1.0  0.91680  0.51791  0.23098  1.0000
  C   C56       1.0  0.87955  0.48162  0.13629  1.0000
  H   H27       1.0  0.80449  0.45312  0.04500  1.0000
  O  Te3       1.0  0.85145  0.58899  0.36566  1.0000
  O  Te4       1.0  0.94566  0.58991  0.40238  1.0000
  H   H28       1.0  0.88661  0.45389  0.07690  1.0000
  Mg  Mg2       1.0  0.91455  0.63046  0.48148  1.0000
  C   C57       1.0  0.52818  0.37879  0.15065  1.0000
  C   C58       1.0  0.49818  0.39620  0.22521  1.0000
  C  Sn5       1.0  0.45651  0.36294  0.31542  1.0000
  C  Sn6       1.0  0.44478  0.31133  0.33108  1.0000
  C   C59       1.0  0.47506  0.29430  0.25611  1.0000
  C   C60       1.0  0.51665  0.32790  0.16609  1.0000
  H   H29       1.0  0.56038  0.40479  0.08107  1.0000
  O  Te5       1.0  0.42692  0.38096  0.38907  1.0000
  O  Te6       1.0  0.40337  0.27729  0.42058  1.0000
  H   H30       1.0  0.53990  0.31442  0.10846  1.0000
  Mg  Mg3       1.0  0.37442  0.31992  0.49834  1.0000
  C   C61       1.0  0.37470  0.85081  0.15961  1.0000
  C   C62       1.0  0.39444  0.89946  0.22603  1.0000
  C  Sn7       1.0  0.36281  0.91125  0.31559  1.0000
  C  Sn8       1.0  0.31046  0.87355  0.33890  1.0000
  C   C63       1.0  0.29109  0.82498  0.27204  1.0000
  C   C64       1.0  0.32308  0.81360  0.18260  1.0000
  H   H31       1.0  0.39945  0.84198  0.09047  1.0000
  O  Te7       1.0  0.38315  0.96005  0.38106  1.0000
  O  Te8       1.0  0.27799  0.88431  0.42793  1.0000
  H   H32       1.0  0.30779  0.77591  0.13127  1.0000
  Mg  Mg4       1.0  0.32361  0.95634  0.49306  1.0000
  C   C65       1.0  0.14970  0.52376  0.13983  1.0000
  C   C66       1.0  0.10108  0.49413  0.20578  1.0000
  C  Sn9       1.0  0.09017  0.45132  0.29001  1.0000
  C  Sn10      1.0  0.12872  0.43802  0.30838  1.0000
  C   C67       1.0  0.17725  0.46793  0.24203  1.0000
  C   C68       1.0  0.18776  0.51068  0.15794  1.0000
  H   H33       1.0  0.15784  0.55685  0.07483  1.0000
  O  Te9       1.0  0.04138  0.42212  0.35510  1.0000
  O  Te10      1.0  0.11885  0.39544  0.39204  1.0000
  H   H34       1.0  0.22542  0.53364  0.10696  1.0000
  Mg  Mg5       1.0  0.04648  0.36762  0.45883  1.0000
  C   C69       1.0  0.54999  0.68337  0.34059  1.0000
  C   C70       1.0  0.53076  0.69886  0.22561  1.0000
  C  Sn11      1.0  0.49984  0.66342  0.11742  1.0000
  C  Sn12      1.0  0.48803  0.61155  0.12481  1.0000
  C   C71       1.0  0.50743  0.59643  0.24034  1.0000
  C   C72       1.0  0.53834  0.63221  0.34799  1.0000
  H   H35       1.0  0.57389  0.71104  0.42393  1.0000
  O  Te11      1.0  0.48096  0.67955  0.00327  1.0000
  O  Te12      1.0  0.45721  0.57533  0.01817  1.0000
  H   H36       1.0  0.55320  0.62020  0.43705  1.0000
  Mg  Mg6       1.0  0.43341  0.62058  0.88410  1.0000
  C   C73       1.0  0.54276  0.17652  0.37618  1.0000
  C   C74       1.0  0.51374  0.19178  0.29588  1.0000
  C  Sn13      1.0  0.47689  0.15754  0.19666  1.0000
  C  Sn14      1.0  0.46903  0.10711  0.17775  1.0000
  C   C75       1.0  0.49824  0.09221  0.25869  1.0000
  C   C76       1.0  0.53503  0.12679  0.35765  1.0000
  H   H37       1.0  0.57120  0.20326  0.45281  1.0000
  O  Te13      1.0  0.44824  0.17341  0.11727  1.0000
  O  Te14      1.0  0.43245  0.07211  0.07937  1.0000
  H   H38       1.0  0.55747  0.11496  0.41988  1.0000
  Mg  Mg7       1.0  0.39576  0.11645  0.99635  1.0000
  C   C77       1.0  0.89077  0.34644  0.15793  1.0000
  C   C78       1.0  0.90086  0.39419  0.21542  1.0000
  C  Sn15      1.0  0.86484  0.39795  0.30892  1.0000
  C  Sn16      1.0  0.81787  0.35298  0.34538  1.0000
  C   C79       1.0  0.80815  0.30539  0.28739  1.0000
  C   C80       1.0  0.84446  0.30207  0.19388  1.0000
  H   H39       1.0  0.91887  0.34387  0.08565  1.0000
  O  Te15      1.0  0.87553  0.44596  0.36534  1.0000
  O  Te16      1.0  0.78120  0.35563  0.43863  1.0000
  H   H40       1.0  0.83665  0.26509  0.14947  1.0000
  Mg  Mg8       1.0  0.81346  0.42985  0.48777  1.0000
  C   C81       1.0  0.63959  0.46219  0.36677  1.0000
  C   C82       1.0  0.68378  0.49268  0.28112  1.0000
  C  Sn17      1.0  0.68546  0.52964  0.18657  1.0000
  C  Sn18      1.0  0.64204  0.53612  0.17787  1.0000
  C   C83       1.0  0.59802  0.50545  0.26409  1.0000
  C   C84       1.0  0.59675  0.46857  0.35830  1.0000
  H   H41       1.0  0.63860  0.43367  0.43973  1.0000
  O  Te17      1.0  0.72992  0.55976  0.10173  1.0000
  O  Te18      1.0  0.64269  0.57278  0.08433  1.0000
  H   H42       1.0  0.56254  0.44499  0.42468  1.0000
  Mg  Mg9       1.0  0.70498  0.60922  0.99072  1.0000
  C   C85       1.0  0.53814  0.88603  0.14881  1.0000
  C   C86       1.0  0.50510  0.89948  0.22400  1.0000
  C  Sn19      1.0  0.47086  0.86750  0.33370  1.0000
  C  Sn20      1.0  0.46978  0.82123  0.36856  1.0000
  C   C87       1.0  0.50303  0.80814  0.29278  1.0000
  C   C88       1.0  0.53712  0.84041  0.18316  1.0000
  H   H43       1.0  0.56455  0.91101  0.06405  1.0000
  O  Te19      1.0  0.43809  0.88150  0.40771  1.0000
  O  Te20      1.0  0.43596  0.78857  0.47776  1.0000
  H   H44       1.0  0.56273  0.83001  0.12503  1.0000
  Mg  Mg10      1.0  0.39883  0.82433  0.54776  1.0000
  C   C89       1.0  0.11034  0.65355  0.18017  1.0000
  C   C90       1.0  0.09981  0.60558  0.23033  1.0000
  C  Sn21      1.0  0.13496  0.60152  0.31873  1.0000
  C  Sn22      1.0  0.18147  0.64637  0.35749  1.0000
  C   C91       1.0  0.19163  0.69418  0.30683  1.0000
  C   C92       1.0  0.15620  0.69781  0.21839  1.0000
  H   H45       1.0  0.08292  0.65636  0.11180  1.0000
  O  Te21      1.0  0.12385  0.55329  0.36785  1.0000
  O  Te22      1.0  0.21727  0.64341  0.44574  1.0000
  H   H46       1.0  0.16435  0.73496  0.17965  1.0000
  Mg  Mg11      1.0  0.18472  0.56900  0.48555  1.0000
  C   C93       1.0  0.32511  0.45631  0.16773  1.0000
  C   C94       1.0  0.30983  0.48758  0.24491  1.0000
  C  Sn23      1.0  0.34539  0.53024  0.32663  1.0000
  C  Sn24      1.0  0.39718  0.54170  0.33093  1.0000
  C   C95       1.0  0.41209  0.51020  0.25325  1.0000
  C   C96       1.0  0.37619  0.46760  0.17186  1.0000
  H   H47       1.0  0.29734  0.42336  0.10468  1.0000
  O  Te23      1.0  0.32947  0.56107  0.40315  1.0000
  O  Te24      1.0  0.43351  0.58411  0.41170  1.0000
  H   H48       1.0  0.38803  0.44341  0.11203  1.0000
  Mg  Mg12      1.0  0.39320  0.61458  0.49764  1.0000
  C   C97       1.0  0.65817  0.09478  0.82562  1.0000
  C   C98       1.0  0.61320  0.09049  0.77091  1.0000
  C  Sn25      1.0  0.61552  0.12909  0.68232  1.0000
  C  Sn26      1.0  0.66382  0.17276  0.64804  1.0000
  C   C99       1.0  0.70859  0.17668  0.70323  1.0000
  C   C100      1.0  0.70583  0.13783  0.79181  1.0000
  H   H49       1.0  0.65604  0.06471  0.89409  1.0000
  O  Te25      1.0  0.57021  0.12420  0.62862  1.0000
  O  Te26      1.0  0.66724  0.21190  0.55970  1.0000
  H   H50       1.0  0.74066  0.14115  0.83408  1.0000
  Mg  Mg13      1.0  0.59471  0.18770  0.51274  1.0000
  C   C101      1.0  0.85398  0.48072  0.62770  1.0000
  C   C102      1.0  0.90026  0.50910  0.70226  1.0000
  C  Sn27      1.0  0.90818  0.55027  0.79559  1.0000
  C  Sn28      1.0  0.86897  0.56317  0.81443  1.0000
  C   C103      1.0  0.82279  0.53452  0.73943  1.0000
  C   C104      1.0  0.81528  0.49340  0.64627  1.0000
  H   H51       1.0  0.84815  0.44889  0.55569  1.0000
  O  Te27      1.0  0.95466  0.57823  0.86920  1.0000
  O  Te28      1.0  0.87587  0.60412  0.90709  1.0000
  H   H52       1.0  0.77943  0.47142  0.58864  1.0000
  Mg  Mg14      1.0  0.94587  0.63070  0.98345  1.0000
  C   C105      1.0  0.43337  0.31642  0.84791  1.0000
  C   C106      1.0  0.45749  0.29525  0.76005  1.0000
  C  Sn29      1.0  0.49933  0.32657  0.66746  1.0000
  C  Sn30      1.0  0.51728  0.38006  0.66303  1.0000
  C   C107      1.0  0.49291  0.40088  0.75144  1.0000
  C   C108      1.0  0.45107  0.36918  0.84365  1.0000
  H   H53       1.0  0.40101  0.29190  0.91932  1.0000
  O  Te29      1.0  0.52296  0.30478  0.58036  1.0000
  O  Te30      1.0  0.55903  0.41225  0.57153  1.0000
  H   H54       1.0  0.43242  0.38559  0.91174  1.0000
  Mg  Mg15      1.0  0.57848  0.36448  0.47351  1.0000
  C   C109      1.0  0.34764  0.83099  0.64952  1.0000
  C   C110      1.0  0.30454  0.82476  0.73077  1.0000
  C  Sn31      1.0  0.30801  0.86425  0.82424  1.0000
  C  Sn32      1.0  0.35556  0.91080  0.83631  1.0000
  C   C111      1.0  0.39844  0.91666  0.75448  1.0000
  C   C112      1.0  0.39454  0.87689  0.66132  1.0000
  H   H55       1.0  0.34462  0.80023  0.57738  1.0000
  O  Te31      1.0  0.26458  0.85739  0.90467  1.0000
  O  Te32      1.0  0.36009  0.95090  0.92886  1.0000
  H   H56       1.0  0.42791  0.88174  0.59835  1.0000
  Mg  Mg16      1.0  0.29722  0.91854  0.01598  1.0000
  C   C113      1.0  0.16864  0.51879  0.62931  1.0000
  C   C114      1.0  0.17520  0.48266  0.70555  1.0000
  C  Sn33      1.0  0.13597  0.44724  0.79855  1.0000
  C  Sn34      1.0  0.08935  0.44809  0.81526  1.0000
  C   C115      1.0  0.08315  0.48437  0.73841  1.0000
  C   C116      1.0  0.12266  0.51965  0.64568  1.0000
  H   H57       1.0  0.19919  0.54607  0.55749  1.0000
  O  Te33      1.0  0.14317  0.41142  0.87395  1.0000
  O  Te34      1.0  0.04951  0.41312  0.90744  1.0000
  H   H58       1.0  0.11755  0.54759  0.58658  1.0000
  Mg  Mg17      1.0  0.07763  0.37168  0.98682  1.0000
  C   C117      1.0  0.46954  0.62000  0.64840  1.0000
  C   C118      1.0  0.50167  0.60292  0.70011  1.0000
  C  Sn35      1.0  0.54771  0.63732  0.76866  1.0000
  C  Sn36      1.0  0.56175  0.68978  0.78563  1.0000
  C   C119      1.0  0.52932  0.70648  0.73362  1.0000
  C   C120      1.0  0.48334  0.67173  0.66515  1.0000
  H   H59       1.0  0.43395  0.59311  0.59549  1.0000
  O  Te35      1.0  0.57937  0.61962  0.81963  1.0000
  O  Te36      1.0  0.60754  0.72498  0.85378  1.0000
  H   H60       1.0  0.45846  0.68496  0.62521  1.0000
  Mg  Mg18      1.0  0.63787  0.68234  0.90498  1.0000
  C   C121      1.0  0.54488  0.15435  0.86332  1.0000
  C   C122      1.0  0.51146  0.10777  0.79297  1.0000
  C  Sn37      1.0  0.47069  0.10310  0.71053  1.0000
  C  Sn38      1.0  0.46335  0.14592  0.69846  1.0000
  C   C123      1.0  0.49701  0.19236  0.76917  1.0000
  C   C124      1.0  0.53768  0.19661  0.85143  1.0000
  H   H61       1.0  0.57636  0.15765  0.92690  1.0000
  O  Te37      1.0  0.43765  0.05627  0.64099  1.0000
  O  Te38      1.0  0.42292  0.14231  0.61671  1.0000
  H   H62       1.0  0.56356  0.23269  0.90581  1.0000
  Mg  Mg19      1.0  0.38816  0.07037  0.54214  1.0000
  C   C125      1.0  0.82101  0.36613  0.84566  1.0000
  C   C126      1.0  0.80878  0.32049  0.76881  1.0000
  C  Sn39      1.0  0.84530  0.31767  0.67519  1.0000
  C  Sn40      1.0  0.89496  0.36141  0.65846  1.0000
  C   C127      1.0  0.90683  0.40688  0.73591  1.0000
  C   C128      1.0  0.86999  0.40928  0.82926  1.0000
  H   H63       1.0  0.79252  0.36799  0.91796  1.0000
  O  Te39      1.0  0.83243  0.27178  0.59919  1.0000
  O  Te40      1.0  0.93220  0.35965  0.56565  1.0000
  H   H64       1.0  0.87949  0.44461  0.88883  1.0000
  Mg  Mg20      1.0  0.89629  0.28840  0.48560  1.0000
  C   C129      1.0  0.67617  0.54279  0.65887  1.0000
  C   C130      1.0  0.69137  0.51598  0.74962  1.0000
  C  Sn41      1.0  0.65535  0.47672  0.84065  1.0000
  C  Sn42      1.0  0.60317  0.46414  0.84055  1.0000
  C   C131      1.0  0.58834  0.49116  0.74928  1.0000
  C   C132      1.0  0.62470  0.53040  0.65866  1.0000
  H   H65       1.0  0.70429  0.57313  0.58869  1.0000
  O  Te41      1.0  0.67119  0.45033  0.93068  1.0000
  O  Te42      1.0  0.56637  0.42505  0.93040  1.0000
  H   H66       1.0  0.61292  0.55113  0.58834  1.0000
  Mg  Mg21      1.0  0.61395  0.39550  0.03372  1.0000
  C   C133      1.0  0.54301  0.88926  0.66702  1.0000
  C   C134      1.0  0.50659  0.90061  0.72908  1.0000
  C  Sn43      1.0  0.46744  0.86563  0.82314  1.0000
  C  Sn44      1.0  0.46482  0.81844  0.85549  1.0000
  C   C135      1.0  0.50145  0.80746  0.79293  1.0000
  C   C136      1.0  0.54046  0.84274  0.69892  1.0000
  H   H67       1.0  0.57320  0.91656  0.59435  1.0000
  O  Te43      1.0  0.43136  0.87757  0.88415  1.0000
  O  Te44      1.0  0.42611  0.78279  0.94917  1.0000
  H   H68       1.0  0.56867  0.83395  0.65096  1.0000
  Mg  Mg22      1.0  0.39302  0.81192  0.00534  1.0000
  C   C137      1.0  0.11021  0.65488  0.66612  1.0000
  C   C138      1.0  0.09861  0.60766  0.72517  1.0000
  C  Sn45      1.0  0.13263  0.60463  0.82114  1.0000
  C  Sn46      1.0  0.17907  0.64979  0.85851  1.0000
  C   C139      1.0  0.19030  0.69685  0.79892  1.0000
  C   C140      1.0  0.15600  0.69944  0.70296  1.0000
  H   H69       1.0  0.08366  0.65689  0.59193  1.0000
  O  Te45      1.0  0.12046  0.55714  0.87910  1.0000
  O  Te46      1.0  0.21374  0.64787  0.95420  1.0000
  H   H70       1.0  0.16497  0.73601  0.65734  1.0000
  Mg  Mg23      1.0  0.18719  0.56951  0.00473  1.0000
  C   C141      1.0  0.32043  0.45520  0.64950  1.0000
  C   C142      1.0  0.30336  0.48192  0.74235  1.0000
  C  Sn47      1.0  0.33737  0.52069  0.83815  1.0000
  C  Sn48      1.0  0.38940  0.53286  0.84076  1.0000
  C   C143      1.0  0.40610  0.50594  0.74736  1.0000
  C   C144      1.0  0.37175  0.46720  0.65197  1.0000
  H   H71       1.0  0.29385  0.42525  0.57563  1.0000
  O  Te47      1.0  0.31968  0.54698  0.93021  1.0000
  O  Te48      1.0  0.42421  0.57145  0.93538  1.0000
  H   H72       1.0  0.38498  0.44654  0.58002  1.0000
  Mg  Mg24      1.0  0.38894  0.59175  0.03988  1.0000
