data_image0
_chemical_formula_structural       H16C32N8C2Sn2C2HTe2HMgC2Sn2C2HTe2HMgC2Sn2C2HTe2HMgC2Sn2C2HTe2HMgC2Sn2C2HTe2HMgC2Sn2C2HTe2HMgC2Sn2C2HTe2HMgC2Sn2C2HTe2HMgC2Sn2C2HTe2HMgC2Sn2C2HTe2HMgC2Sn2C2HTe2HMgC2Sn2C2HTe2HMgC2Sn2C2HTe2HMgC2Sn2C2HTe2HMgC2Sn2C2HTe2HMgC2Sn2C2HTe2HMg
_chemical_formula_sum              "H48 C96 N8 Sn32 Te32 Mg16"
_cell_length_a       17.189
_cell_length_b       24.777
_cell_length_c       11.2871
_cell_angle_alpha    90.2933
_cell_angle_beta     117.742
_cell_angle_gamma    90.0285

_symmetry_space_group_name_H-M    'P1'
_space_group_IT_number       1

loop_
  _space_group_symop_operation_xyz
  'x, y, z'

loop_
  _atom_site_type_symbol
  _atom_site_label
  _atom_site_symmetry_multiplicity
  _atom_site_fract_x
  _atom_site_fract_y
  _atom_site_fract_z
  _atom_site_occupancy
  H   H1        1.0  0.74932  0.27277  0.12074  1.0000
  H   H2        1.0  0.75155  0.72774  0.12789  1.0000
  H   H3        1.0  0.23860  0.76755  0.12847  1.0000
  H   H4        1.0  0.24736  0.22994  0.12549  1.0000
  H   H5        1.0  0.34718  0.49973  0.23487  1.0000
  H   H6        1.0  0.84340  0.00026  0.21981  1.0000
  H   H7        1.0  0.64808  0.50235  0.28942  1.0000
  H   H8        1.0  0.14705  0.00158  0.28713  1.0000
  H   H9        1.0  0.74176  0.26976  0.62682  1.0000
  H   H10       1.0  0.73673  0.73049  0.62199  1.0000
  H   H11       1.0  0.25265  0.77168  0.63155  1.0000
  H   H12       1.0  0.26299  0.22260  0.64066  1.0000
  H   H13       1.0  0.34429  0.49911  0.73363  1.0000
  H   H14       1.0  0.84258  0.99715  0.73412  1.0000
  H   H15       1.0  0.64632  0.49996  0.79282  1.0000
  H   H16       1.0  0.13848  0.00185  0.76821  1.0000
  C   C1        1.0  0.53990  0.55160  0.26880  1.0000
  C   C2        1.0  0.54085  0.45161  0.26488  1.0000
  C   C3        1.0  0.03765  0.05123  0.25836  1.0000
  C   C4        1.0  0.03940  0.95103  0.26243  1.0000
  C   C5        1.0  0.45392  0.55063  0.25683  1.0000
  C   C6        1.0  0.45485  0.45084  0.25237  1.0000
  C   C7        1.0  0.95074  0.05072  0.24282  1.0000
  C   C8        1.0  0.95232  0.95080  0.24618  1.0000
  C   C9        1.0  0.75758  0.24595  0.20307  1.0000
  C   C10       1.0  0.75829  0.75589  0.20781  1.0000
  C   C11       1.0  0.25415  0.74264  0.21701  1.0000
  C   C12       1.0  0.25932  0.25632  0.21104  1.0000
  C   C13       1.0  0.41452  0.50032  0.25008  1.0000
  C   C14       1.0  0.91134  0.00060  0.23795  1.0000
  C   C15       1.0  0.58059  0.50192  0.27347  1.0000
  C   C16       1.0  0.07894  0.00128  0.26827  1.0000
  C   C17       1.0  0.53826  0.54947  0.76918  1.0000
  C   C18       1.0  0.53808  0.44945  0.76672  1.0000
  C   C19       1.0  0.03071  0.04986  0.75225  1.0000
  C   C20       1.0  0.03466  0.95016  0.75601  1.0000
  C   C21       1.0  0.45199  0.54923  0.75610  1.0000
  C   C22       1.0  0.45145  0.44924  0.75254  1.0000
  C   C23       1.0  0.94637  0.04887  0.74598  1.0000
  C   C24       1.0  0.95002  0.94924  0.74860  1.0000
  C   C25       1.0  0.75265  0.24299  0.71053  1.0000
  C   C26       1.0  0.75309  0.75579  0.71085  1.0000
  C   C27       1.0  0.25865  0.74478  0.71255  1.0000
  C   C28       1.0  0.25777  0.25324  0.70745  1.0000
  C   C29       1.0  0.41182  0.49915  0.74965  1.0000
  C   C30       1.0  0.90891  0.99847  0.74528  1.0000
  C   C31       1.0  0.57844  0.49957  0.77499  1.0000
  C   C32       1.0  0.07219  0.00061  0.75725  1.0000
  N   N1        1.0  0.23189  0.75693  0.30752  1.0000
  N   N2        1.0  0.23251  0.24421  0.29753  1.0000
  N   N3        1.0  0.72962  0.25831  0.28825  1.0000
  N   N4        1.0  0.72836  0.74530  0.29137  1.0000
  N   N5        1.0  0.22687  0.75683  0.79323  1.0000
  N   N6        1.0  0.21560  0.24514  0.77569  1.0000
  N   N7        1.0  0.72727  0.25542  0.79869  1.0000
  N   N8        1.0  0.73146  0.74236  0.80235  1.0000
  C   C33       1.0  0.68336  0.63520  0.20357  1.0000
  C   C34       1.0  0.68601  0.68552  0.26187  1.0000
  C  Sn1       1.0  0.64108  0.69366  0.33654  1.0000
  C  Sn2       1.0  0.59266  0.65055  0.35300  1.0000
  C   C35       1.0  0.59047  0.60035  0.29434  1.0000
  C   C36       1.0  0.63565  0.59265  0.21979  1.0000
  H   H17       1.0  0.71835  0.62923  0.14594  1.0000
  O  Te1       1.0  0.64440  0.74419  0.39407  1.0000
  O  Te2       1.0  0.54718  0.65757  0.42717  1.0000
  H   H18       1.0  0.63363  0.55368  0.17473  1.0000
  Mg  Mg1       1.0  0.57159  0.73389  0.48611  1.0000
  C   C37       1.0  0.67695  0.36589  0.18670  1.0000
  C   C38       1.0  0.69337  0.31988  0.26584  1.0000
  C  Sn3       1.0  0.65385  0.31369  0.34868  1.0000
  C  Sn4       1.0  0.59685  0.35436  0.35211  1.0000
  C   C39       1.0  0.58079  0.40022  0.27248  1.0000
  C   C40       1.0  0.62071  0.40602  0.18998  1.0000
  H   H19       1.0  0.70779  0.37037  0.12280  1.0000
  O  Te3       1.0  0.67100  0.26748  0.42715  1.0000
  O  Te4       1.0  0.55646  0.34919  0.43397  1.0000
  H   H20       1.0  0.60793  0.44162  0.12864  1.0000
  Mg  Mg2       1.0  0.60042  0.27888  0.52251  1.0000
  C   C41       1.0  0.11676  0.18641  0.35603  1.0000
  C   C42       1.0  0.17759  0.19498  0.30835  1.0000
  C  Sn5       1.0  0.19181  0.15518  0.23246  1.0000
  C  Sn6       1.0  0.14412  0.10594  0.20391  1.0000
  C   C43       1.0  0.08337  0.09778  0.25200  1.0000
  C   C44       1.0  0.06968  0.13786  0.32788  1.0000
  H   H21       1.0  0.10613  0.21743  0.41468  1.0000
  O  Te5       1.0  0.25285  0.16440  0.18564  1.0000
  O  Te6       1.0  0.15702  0.06550  0.12825  1.0000
  H   H22       1.0  0.02253  0.13123  0.36471  1.0000
  Mg  Mg3       1.0  0.24734  0.09703  0.08674  1.0000
  C   C45       1.0  0.16299  0.89105  0.20908  1.0000
  C   C46       1.0  0.10046  0.90000  0.25333  1.0000
  C  Sn7       1.0  0.08573  0.86115  0.33000  1.0000
  C  Sn8       1.0  0.13462  0.81249  0.36285  1.0000
  C   C47       1.0  0.19708  0.80394  0.31818  1.0000
  C   C48       1.0  0.21127  0.84308  0.24148  1.0000
  H   H23       1.0  0.17402  0.92135  0.14980  1.0000
  O  Te7       1.0  0.02298  0.87073  0.37335  1.0000
  O  Te8       1.0  0.12124  0.77299  0.43938  1.0000
  H   H24       1.0  0.25973  0.83615  0.20731  1.0000
  Mg  Mg4       1.0  0.02844  0.80470  0.47508  1.0000
  C   C49       1.0  0.38001  0.65275  0.13298  1.0000
  C   C50       1.0  0.40427  0.61093  0.22597  1.0000
  C  Sn9       1.0  0.37080  0.60881  0.31740  1.0000
  C  Sn10      1.0  0.31194  0.64935  0.31543  1.0000
  C   C51       1.0  0.28803  0.69099  0.22194  1.0000
  C   C52       1.0  0.32194  0.69274  0.13093  1.0000
  H   H25       1.0  0.40620  0.65409  0.06251  1.0000
  O  Te9       1.0  0.39575  0.56676  0.40966  1.0000
  O  Te10      1.0  0.27749  0.64819  0.40564  1.0000
  H   H26       1.0  0.30310  0.72510  0.05889  1.0000
  Mg  Mg5       1.0  0.33118  0.58271  0.51231  1.0000
  C   C53       1.0  0.32729  0.35948  0.33233  1.0000
  C   C54       1.0  0.30434  0.31704  0.24002  1.0000
  C  Sn11      1.0  0.33562  0.31594  0.14583  1.0000
  C  Sn12      1.0  0.39090  0.35818  0.14428  1.0000
  C   C55       1.0  0.41353  0.40045  0.23711  1.0000
  C   C56       1.0  0.38185  0.40115  0.33091  1.0000
  H   H27       1.0  0.30282  0.36002  0.40495  1.0000
  O  Te11      1.0  0.31202  0.27324  0.05429  1.0000
  O  Te12      1.0  0.42311  0.35808  0.05125  1.0000
  H   H28       1.0  0.39967  0.43400  0.40242  1.0000
  Mg  Mg6       1.0  0.67815  0.29356  0.94692  1.0000
  C   C57       1.0  0.85768  0.18009  0.11786  1.0000
  C   C58       1.0  0.80505  0.19227  0.17852  1.0000
  C  Sn13      1.0  0.80266  0.15761  0.27403  1.0000
  C  Sn14      1.0  0.85400  0.10991  0.30929  1.0000
  C   C59       1.0  0.90649  0.09810  0.24810  1.0000
  C   C60       1.0  0.90836  0.13306  0.15262  1.0000
  H   H29       1.0  0.85917  0.20715  0.04404  1.0000
  O  Te13      1.0  0.74970  0.17039  0.33362  1.0000
  O  Te14      1.0  0.85288  0.07457  0.40448  1.0000
  H   H30       1.0  0.94916  0.12363  0.10574  1.0000
  Mg  Mg7       1.0  0.77025  0.10953  0.45778  1.0000
  C   C61       1.0  0.81627  0.86203  0.31669  1.0000
  C   C62       1.0  0.79890  0.81784  0.23048  1.0000
  C  Sn15      1.0  0.83742  0.81459  0.14562  1.0000
  C  Sn16      1.0  0.89437  0.85640  0.14735  1.0000
  C   C63       1.0  0.91138  0.90042  0.23403  1.0000
  C   C64       1.0  0.87246  0.90328  0.31850  1.0000
  H   H31       1.0  0.78620  0.86423  0.38210  1.0000
  O  Te15      1.0  0.81933  0.77017  0.06007  1.0000
  O  Te16      1.0  0.93377  0.85416  0.06362  1.0000
  H   H32       1.0  0.88597  0.93748  0.38530  1.0000
  Mg  Mg8       1.0  0.19442  0.78785  0.96475  1.0000
  C   C65       1.0  0.62345  0.68280  0.87377  1.0000
  C   C66       1.0  0.67799  0.69268  0.81524  1.0000
  C  Sn17      1.0  0.68621  0.65414  0.73098  1.0000
  C  Sn18      1.0  0.63886  0.60485  0.70500  1.0000
  C   C67       1.0  0.58442  0.59537  0.76396  1.0000
  C   C68       1.0  0.57670  0.63420  0.84815  1.0000
  H   H33       1.0  0.61744  0.71285  0.93885  1.0000
  O  Te17      1.0  0.74101  0.66465  0.67337  1.0000
  O  Te18      1.0  0.64584  0.56565  0.62114  1.0000
  H   H34       1.0  0.53443  0.62656  0.89338  1.0000
  Mg  Mg9       1.0  0.72886  0.59869  0.56615  1.0000
  C   C69       1.0  0.62102  0.31630  0.87085  1.0000
  C   C70       1.0  0.66846  0.30362  0.80209  1.0000
  C  Sn19      1.0  0.68078  0.34235  0.72280  1.0000
  C  Sn20      1.0  0.64490  0.39473  0.71239  1.0000
  C   C71       1.0  0.59760  0.40703  0.78165  1.0000
  C   C72       1.0  0.58563  0.36796  0.86068  1.0000
  H   H35       1.0  0.61180  0.28608  0.93205  1.0000
  O  Te19      1.0  0.72832  0.32900  0.65474  1.0000
  O  Te20      1.0  0.65626  0.43422  0.63389  1.0000
  H   H36       1.0  0.54895  0.37780  0.91397  1.0000
  Mg  Mg10      1.0  0.72604  0.39659  0.56024  1.0000
  C   C73       1.0  0.09688  0.15575  0.86300  1.0000
  C   C74       1.0  0.07579  0.11122  0.77695  1.0000
  C  Sn21      1.0  0.10741  0.10780  0.68336  1.0000
  C  Sn22      1.0  0.16114  0.14979  0.67605  1.0000
  C   C75       1.0  0.18191  0.19415  0.76265  1.0000
  C   C76       1.0  0.14990  0.19718  0.85590  1.0000
  H   H37       1.0  0.07216  0.15808  0.93520  1.0000
  O  Te21      1.0  0.08568  0.06304  0.59810  1.0000
  O  Te22      1.0  0.19365  0.14739  0.58348  1.0000
  H   H38       1.0  0.16628  0.23164  0.92257  1.0000
  Mg  Mg11      1.0  0.14583  0.07818  0.48880  1.0000
  C   C77       1.0  0.12387  0.81904  0.86876  1.0000
  C   C78       1.0  0.16668  0.80507  0.79383  1.0000
  C  Sn23      1.0  0.17374  0.84241  0.70696  1.0000
  C  Sn24      1.0  0.13723  0.89467  0.69513  1.0000
  C   C79       1.0  0.09459  0.90826  0.77059  1.0000
  C   C80       1.0  0.08787  0.87058  0.85718  1.0000
  H   H39       1.0  0.11871  0.78990  0.93582  1.0000
  O  Te23      1.0  0.21669  0.82778  0.63281  1.0000
  O  Te24      1.0  0.14338  0.93278  0.60910  1.0000
  H   H40       1.0  0.05477  0.88142  0.91525  1.0000
  Mg  Mg12      1.0  0.20817  0.89374  0.52907  1.0000
  C   C81       1.0  0.36623  0.68056  0.63885  1.0000
  C   C82       1.0  0.31077  0.69247  0.69477  1.0000
  C  Sn25      1.0  0.30339  0.65669  0.78432  1.0000
  C  Sn26      1.0  0.35255  0.60813  0.81836  1.0000
  C   C83       1.0  0.40791  0.59660  0.76194  1.0000
  C   C84       1.0  0.41477  0.63268  0.67241  1.0000
  H   H41       1.0  0.37158  0.70849  0.56963  1.0000
  O  Te25      1.0  0.24764  0.66921  0.83923  1.0000
  O  Te26      1.0  0.34645  0.57167  0.90763  1.0000
  H   H42       1.0  0.45776  0.62347  0.62920  1.0000
  Mg  Mg13      1.0  0.26157  0.60670  0.95608  1.0000
  C   C85       1.0  0.39242  0.34236  0.64022  1.0000
  C   C86       1.0  0.39641  0.39018  0.70906  1.0000
  C  Sn27      1.0  0.35375  0.39390  0.78816  1.0000
  C  Sn28      1.0  0.30629  0.34884  0.79837  1.0000
  C   C87       1.0  0.30274  0.30117  0.72918  1.0000
  C   C88       1.0  0.34565  0.29790  0.65027  1.0000
  H   H43       1.0  0.42565  0.33981  0.57922  1.0000
  O  Te27      1.0  0.35838  0.44198  0.85623  1.0000
  O  Te28      1.0  0.26307  0.35145  0.87676  1.0000
  H   H44       1.0  0.34259  0.26086  0.59705  1.0000
  Mg  Mg14      1.0  0.28858  0.42579  0.95045  1.0000
  C   C89       1.0  0.83643  0.11200  0.82268  1.0000
  C   C90       1.0  0.87818  0.09661  0.74717  1.0000
  C  Sn29      1.0  0.88167  0.13202  0.65380  1.0000
  C  Sn30      1.0  0.84260  0.18377  0.63595  1.0000
  C   C91       1.0  0.80105  0.19880  0.71205  1.0000
  C   C92       1.0  0.79791  0.16305  0.80517  1.0000
  H   H45       1.0  0.83404  0.08436  0.89478  1.0000
  O  Te29      1.0  0.92361  0.11599  0.57916  1.0000
  O  Te30      1.0  0.84516  0.21996  0.54336  1.0000
  H   H46       1.0  0.76564  0.17499  0.86368  1.0000
  Mg  Mg15      1.0  0.90988  0.17953  0.46534  1.0000
  C   C93       1.0  0.82267  0.85882  0.83142  1.0000
  C   C94       1.0  0.79841  0.81638  0.73891  1.0000
  C  Sn31      1.0  0.82983  0.81444  0.64493  1.0000
  C  Sn32      1.0  0.88659  0.85581  0.64382  1.0000
  C   C95       1.0  0.91052  0.89807  0.73685  1.0000
  C   C96       1.0  0.87868  0.89963  0.83043  1.0000
  H   H47       1.0  0.79807  0.86002  0.90388  1.0000
  O  Te31      1.0  0.80492  0.77176  0.55319  1.0000
  O  Te32      1.0  0.91898  0.85485  0.55101  1.0000
  H   H48       1.0  0.89752  0.93247  0.90210  1.0000
  Mg  Mg16      1.0  0.86622  0.78829  0.44625  1.0000
