data_image0
_chemical_formula_structural       H72C120N12SnCSn2CSnTe4Mg2SnCSn2CSnTe4Mg2SnCSn2CSnTe4Mg2SnCSn2CSnTe4Mg2SnCSn2CSnTe4Mg2SnCSn2CSnTe4Mg2SnCSn2CSnTe4Mg2SnCSn2CSnTe4Mg2SnCSn2CSnTe4Mg2SnCSn2CSnTe4Mg2SnCSn2CSnTe4Mg2SnCSn2CSnTe4Mg2
_chemical_formula_sum              "H72 C144 N12 Sn48 Te48 Mg24"
_cell_length_a       30.1108
_cell_length_b       30.0991
_cell_length_c       9.72236
_cell_angle_alpha    89.7471
_cell_angle_beta     90.8128
_cell_angle_gamma    120.121

_symmetry_space_group_name_H-M    'P1'
_space_group_IT_number       1

loop_
  _space_group_symop_operation_xyz
  'x, y, z'

loop_
  _atom_site_type_symbol
  _atom_site_label
  _atom_site_symmetry_multiplicity
  _atom_site_fract_x
  _atom_site_fract_y
  _atom_site_fract_z
  _atom_site_occupancy
  H   H1        1.0  0.41989  0.00407  0.27509  1.0000
  H   H2        1.0  0.99888  0.41484  0.24634  1.0000
  H   H3        1.0  0.58476  0.58311  0.25677  1.0000
  H   H4        1.0  0.57863  0.99709  0.22623  1.0000
  H   H5        1.0  0.00261  0.57982  0.21686  1.0000
  H   H6        1.0  0.42010  0.42099  0.22607  1.0000
  H   H7        1.0  0.63050  0.05875  0.39897  1.0000
  H   H8        1.0  0.71967  0.13286  0.39720  1.0000
  H   H9        1.0  0.67194  0.21184  0.11558  1.0000
  H   H10       1.0  0.58277  0.13824  0.12048  1.0000
  H   H11       1.0  0.37442  0.93064  0.42606  1.0000
  H   H12       1.0  0.07093  0.44185  0.40683  1.0000
  H   H13       1.0  0.28921  0.85144  0.43372  1.0000
  H   H14       1.0  0.15039  0.43640  0.41915  1.0000
  H   H15       1.0  0.32546  0.79482  0.07193  1.0000
  H   H16       1.0  0.20912  0.53494  0.06701  1.0000
  H   H17       1.0  0.41155  0.87361  0.06690  1.0000
  H   H18       1.0  0.13015  0.54160  0.05623  1.0000
  H   H19       1.0  0.88223  0.42801  0.43886  1.0000
  H   H20       1.0  0.80059  0.34559  0.47214  1.0000
  H   H21       1.0  0.83697  0.27987  0.13062  1.0000
  H   H22       1.0  0.91882  0.36261  0.09771  1.0000
  H   H23       1.0  0.73636  0.26236  0.38610  1.0000
  H   H24       1.0  0.74260  0.47928  0.39744  1.0000
  H   H25       1.0  0.54006  0.27174  0.38576  1.0000
  H   H26       1.0  0.23889  0.46935  0.35432  1.0000
  H   H27       1.0  0.52812  0.76648  0.36085  1.0000
  H   H28       1.0  0.23317  0.76283  0.36373  1.0000
  H   H29       1.0  0.42059  0.00426  0.76546  1.0000
  H   H30       1.0  0.99660  0.41841  0.76354  1.0000
  H   H31       1.0  0.58172  0.57929  0.77143  1.0000
  H   H32       1.0  0.57913  0.99664  0.72635  1.0000
  H   H33       1.0  0.00174  0.58315  0.70482  1.0000
  H   H34       1.0  0.41581  0.41901  0.72392  1.0000
  H   H35       1.0  0.94080  0.57367  0.87320  1.0000
  H   H36       1.0  0.86560  0.58652  0.87224  1.0000
  H   H37       1.0  0.78469  0.45677  0.60184  1.0000
  H   H38       1.0  0.85980  0.44459  0.60039  1.0000
  H   H39       1.0  0.37260  0.93489  0.91037  1.0000
  H   H40       1.0  0.06873  0.44276  0.90844  1.0000
  H   H41       1.0  0.55455  0.62589  0.92269  1.0000
  H   H42       1.0  0.28661  0.85683  0.91854  1.0000
  H   H43       1.0  0.14788  0.43703  0.91686  1.0000
  H   H44       1.0  0.55883  0.71015  0.92905  1.0000
  H   H45       1.0  0.32633  0.79168  0.58230  1.0000
  H   H46       1.0  0.20557  0.53606  0.56544  1.0000
  H   H47       1.0  0.46289  0.66956  0.56607  1.0000
  H   H48       1.0  0.41291  0.86976  0.57511  1.0000
  H   H49       1.0  0.12714  0.54365  0.55998  1.0000
  H   H50       1.0  0.45729  0.58449  0.56225  1.0000
  H   H51       1.0  0.56028  0.12741  0.93791  1.0000
  H   H52       1.0  0.86877  0.43481  0.90906  1.0000
  H   H53       1.0  0.56785  0.43616  0.92560  1.0000
  H   H54       1.0  0.55945  0.20884  0.96619  1.0000
  H   H55       1.0  0.78762  0.35213  0.93319  1.0000
  H   H56       1.0  0.65116  0.43851  0.94410  1.0000
  H   H57       1.0  0.44161  0.16029  0.65396  1.0000
  H   H58       1.0  0.84515  0.27921  0.66750  1.0000
  H   H59       1.0  0.71708  0.56331  0.65599  1.0000
  H   H60       1.0  0.44284  0.07873  0.62476  1.0000
  H   H61       1.0  0.92577  0.36275  0.63851  1.0000
  H   H62       1.0  0.63321  0.56065  0.63660  1.0000
  H   H63       1.0  0.44712  0.86332  0.88215  1.0000
  H   H64       1.0  0.45057  0.78353  0.85363  1.0000
  H   H65       1.0  0.55221  0.85107  0.51188  1.0000
  H   H66       1.0  0.54999  0.93150  0.54344  1.0000
  H   H67       1.0  0.73043  0.26600  0.85956  1.0000
  H   H68       1.0  0.73703  0.46936  0.87333  1.0000
  H   H69       1.0  0.53445  0.26895  0.88543  1.0000
  H   H70       1.0  0.23665  0.47142  0.85412  1.0000
  H   H71       1.0  0.52529  0.76416  0.86009  1.0000
  H   H72       1.0  0.23007  0.76614  0.85712  1.0000
  C   C1        1.0  0.54790  0.04683  0.25462  1.0000
  C   C2        1.0  0.95382  0.49842  0.23844  1.0000
  C   C3        1.0  0.50155  0.45403  0.25192  1.0000
  C   C4        1.0  0.50210  0.04894  0.26804  1.0000
  C   C5        1.0  0.95323  0.45102  0.24620  1.0000
  C   C6        1.0  0.54901  0.50108  0.25884  1.0000
  C   C7        1.0  0.45504  0.00256  0.26423  1.0000
  C   C8        1.0  0.99992  0.45147  0.24027  1.0000
  C   C9        1.0  0.54826  0.54725  0.25071  1.0000
  C   C10       1.0  0.45082  0.95425  0.24775  1.0000
  C   C11       1.0  0.04776  0.49651  0.22908  1.0000
  C   C12       1.0  0.50302  0.54970  0.23761  1.0000
  C   C13       1.0  0.49657  0.95216  0.23345  1.0000
  C   C14       1.0  0.04865  0.54405  0.22010  1.0000
  C   C15       1.0  0.45572  0.50280  0.22765  1.0000
  C   C16       1.0  0.54348  0.99856  0.23713  1.0000
  C   C17       1.0  0.00168  0.54328  0.22440  1.0000
  C   C18       1.0  0.45660  0.45675  0.23416  1.0000
  C   C19       1.0  0.60028  0.09239  0.25647  1.0000
  C   C20       1.0  0.90574  0.40109  0.26641  1.0000
  C   C21       1.0  0.39902  0.90787  0.24579  1.0000
  C   C22       1.0  0.09455  0.49190  0.22993  1.0000
  C   C23       1.0  0.63971  0.09188  0.33464  1.0000
  C   C24       1.0  0.68975  0.13345  0.33466  1.0000
  C   C25       1.0  0.70164  0.17733  0.25665  1.0000
  C   C26       1.0  0.66250  0.17832  0.17840  1.0000
  C   C27       1.0  0.61278  0.13656  0.17925  1.0000
  C   C28       1.0  0.36327  0.90149  0.34653  1.0000
  C   C29       1.0  0.10052  0.46132  0.33014  1.0000
  C   C30       1.0  0.31543  0.85687  0.35098  1.0000
  C   C31       1.0  0.14521  0.45841  0.33769  1.0000
  C   C32       1.0  0.30138  0.81785  0.25256  1.0000
  C   C33       1.0  0.18471  0.48485  0.24285  1.0000
  C   C34       1.0  0.33648  0.82482  0.14884  1.0000
  C   C35       1.0  0.17853  0.51465  0.14062  1.0000
  C   C36       1.0  0.38445  0.86891  0.14615  1.0000
  C   C37       1.0  0.13432  0.51816  0.13489  1.0000
  C   C38       1.0  0.87200  0.39536  0.37210  1.0000
  C   C39       1.0  0.82632  0.34939  0.38962  1.0000
  C   C40       1.0  0.81336  0.30744  0.30205  1.0000
  C   C41       1.0  0.84778  0.31242  0.19866  1.0000
  C   C42       1.0  0.89337  0.35856  0.18123  1.0000
  C   C43       1.0  0.76379  0.26040  0.31625  1.0000
  C   C44       1.0  0.74094  0.50250  0.31179  1.0000
  C   C45       1.0  0.50663  0.24191  0.32830  1.0000
  C   C46       1.0  0.23145  0.48172  0.25409  1.0000
  C   C47       1.0  0.51534  0.74714  0.26031  1.0000
  C   C48       1.0  0.25175  0.77052  0.26278  1.0000
  C   C49       1.0  0.54860  0.04669  0.75314  1.0000
  C   C50       1.0  0.95243  0.50237  0.73560  1.0000
  C   C51       1.0  0.49679  0.45082  0.75255  1.0000
  C   C52       1.0  0.50266  0.04879  0.76309  1.0000
  C   C53       1.0  0.95106  0.45475  0.75216  1.0000
  C   C54       1.0  0.54479  0.49703  0.76486  1.0000
  C   C55       1.0  0.45568  0.00249  0.75797  1.0000
  C   C56       1.0  0.99773  0.45487  0.75047  1.0000
  C   C57       1.0  0.54503  0.54381  0.76095  1.0000
  C   C58       1.0  0.45124  0.95403  0.74365  1.0000
  C   C59       1.0  0.04577  0.49921  0.73408  1.0000
  C   C60       1.0  0.50057  0.54738  0.74393  1.0000
  C   C61       1.0  0.49706  0.95188  0.73121  1.0000
  C   C62       1.0  0.04715  0.54674  0.71742  1.0000
  C   C63       1.0  0.45269  0.50119  0.72922  1.0000
  C   C64       1.0  0.54401  0.99826  0.73607  1.0000
  C   C65       1.0  0.00051  0.54662  0.71795  1.0000
  C   C66       1.0  0.45248  0.45450  0.73430  1.0000
  C   C67       1.0  0.90651  0.50853  0.73526  1.0000
  C   C68       1.0  0.50146  0.09706  0.78110  1.0000
  C   C69       1.0  0.90330  0.40498  0.77265  1.0000
  C   C70       1.0  0.59452  0.49844  0.78071  1.0000
  C   C71       1.0  0.49842  0.90356  0.71555  1.0000
  C   C72       1.0  0.39920  0.90801  0.74234  1.0000
  C   C73       1.0  0.09226  0.49409  0.73412  1.0000
  C   C74       1.0  0.50546  0.59891  0.74195  1.0000
  C   C75       1.0  0.90703  0.54854  0.81117  1.0000
  C   C76       1.0  0.86479  0.55577  0.81201  1.0000
  C   C77       1.0  0.81978  0.52208  0.73865  1.0000
  C   C78       1.0  0.81896  0.48225  0.66153  1.0000
  C   C79       1.0  0.86166  0.47594  0.65979  1.0000
  C   C80       1.0  0.36232  0.90407  0.83654  1.0000
  C   C81       1.0  0.09821  0.46274  0.83180  1.0000
  C   C82       1.0  0.53524  0.63563  0.84281  1.0000
  C   C83       1.0  0.31401  0.86011  0.84157  1.0000
  C   C84       1.0  0.14279  0.45958  0.83693  1.0000
  C   C85       1.0  0.53742  0.68293  0.84695  1.0000
  C   C86       1.0  0.30067  0.81907  0.75040  1.0000
  C   C87       1.0  0.18224  0.48631  0.74199  1.0000
  C   C88       1.0  0.51115  0.69566  0.74811  1.0000
  C   C89       1.0  0.33692  0.82335  0.65351  1.0000
  C   C90       1.0  0.17559  0.51614  0.64077  1.0000
  C   C91       1.0  0.48277  0.65972  0.64396  1.0000
  C   C92       1.0  0.38520  0.86696  0.64995  1.0000
  C   C93       1.0  0.13162  0.52015  0.63784  1.0000
  C   C94       1.0  0.47991  0.61226  0.64177  1.0000
  C   C95       1.0  0.53402  0.13448  0.87694  1.0000
  C   C96       1.0  0.86370  0.40083  0.85641  1.0000
  C   C97       1.0  0.60051  0.46420  0.86734  1.0000
  C   C98       1.0  0.53380  0.18029  0.89150  1.0000
  C   C99       1.0  0.81808  0.35441  0.86918  1.0000
  C   C100      1.0  0.64724  0.46540  0.87683  1.0000
  C   C101      1.0  0.50033  0.18994  0.81132  1.0000
  C   C102      1.0  0.81083  0.31001  0.80134  1.0000
  C   C103      1.0  0.68975  0.50100  0.80056  1.0000
  C   C104      1.0  0.46684  0.15222  0.71707  1.0000
  C   C105      1.0  0.85095  0.31343  0.72103  1.0000
  C   C106      1.0  0.68438  0.53617  0.71616  1.0000
  C   C107      1.0  0.46743  0.10659  0.70219  1.0000
  C   C108      1.0  0.89616  0.36013  0.70655  1.0000
  C   C109      1.0  0.63761  0.53478  0.70666  1.0000
  C   C110      1.0  0.47035  0.86094  0.80115  1.0000
  C   C111      1.0  0.47226  0.81597  0.78554  1.0000
  C   C112      1.0  0.50207  0.81189  0.68129  1.0000
  C   C113      1.0  0.52999  0.85425  0.59453  1.0000
  C   C114      1.0  0.52873  0.89944  0.61302  1.0000
  C   C115      1.0  0.76138  0.26259  0.81074  1.0000
  C   C116      1.0  0.73729  0.49903  0.80611  1.0000
  C   C117      1.0  0.50241  0.23935  0.82352  1.0000
  C   C118      1.0  0.22917  0.48334  0.75330  1.0000
  C   C119      1.0  0.51337  0.74516  0.75896  1.0000
  C   C120      1.0  0.25042  0.77254  0.75939  1.0000
  N   N1        1.0  0.75204  0.21888  0.25006  1.0000
  N   N2        1.0  0.77778  0.52419  0.22558  1.0000
  N   N3        1.0  0.47278  0.25124  0.27449  1.0000
  N   N4        1.0  0.26250  0.49279  0.15257  1.0000
  N   N5        1.0  0.50371  0.76751  0.15897  1.0000
  N   N6        1.0  0.23093  0.73938  0.16008  1.0000
  N   N7        1.0  0.75318  0.21902  0.76394  1.0000
  N   N8        1.0  0.77724  0.52947  0.73623  1.0000
  N   N9        1.0  0.46929  0.24853  0.76453  1.0000
  N   N10       1.0  0.26032  0.49375  0.65226  1.0000
  N   N11       1.0  0.50263  0.76616  0.65732  1.0000
  N   N12       1.0  0.23097  0.74041  0.65821  1.0000
  C  Sn1       1.0  0.63777  0.46286  0.37460  1.0000
  C   C121      1.0  0.68174  0.49023  0.29544  1.0000
  C  Sn2       1.0  0.68705  0.52992  0.20969  1.0000
  C  Sn3       1.0  0.64758  0.54255  0.20298  1.0000
  C   C122      1.0  0.60364  0.51520  0.28212  1.0000
  C  Sn4       1.0  0.59830  0.47549  0.36789  1.0000
  O  Te1       1.0  0.63328  0.42333  0.45962  1.0000
  O  Te2       1.0  0.73136  0.55672  0.13148  1.0000
  O  Te3       1.0  0.65210  0.58211  0.11786  1.0000
  O  Te4       1.0  0.55403  0.44871  0.44608  1.0000
  Mg  Mg1       1.0  0.71968  0.60743  0.03121  1.0000
  Mg  Mg2       1.0  0.56568  0.39801  0.54644  1.0000
  C  Sn5       1.0  0.12589  0.67560  0.12493  1.0000
  C   C123      1.0  0.17315  0.69429  0.19301  1.0000
  C  Sn6       1.0  0.18465  0.66080  0.26416  1.0000
  C  Sn7       1.0  0.14817  0.60753  0.26725  1.0000
  C   C124      1.0  0.10094  0.58887  0.19918  1.0000
  C  Sn8       1.0  0.08940  0.62232  0.12802  1.0000
  O  Te5       1.0  0.11520  0.70977  0.05444  1.0000
  O  Te6       1.0  0.23215  0.68039  0.33148  1.0000
  O  Te7       1.0  0.15889  0.57336  0.33782  1.0000
  O  Te8       1.0  0.04194  0.60276  0.06071  1.0000
  Mg  Mg3       1.0  0.22885  0.61850  0.41354  1.0000
  Mg  Mg4       1.0  0.05038  0.66578  0.97856  1.0000
  C  Sn9       1.0  0.52964  0.64301  0.37008  1.0000
  C   C125      1.0  0.50212  0.60313  0.27606  1.0000
  C  Sn10      1.0  0.48236  0.61196  0.15478  1.0000
  C  Sn11      1.0  0.49029  0.66170  0.12683  1.0000
  C   C126      1.0  0.51780  0.70155  0.22080  1.0000
  C  Sn12      1.0  0.53757  0.69275  0.34213  1.0000
  O  Te9       1.0  0.54906  0.63331  0.49067  1.0000
  O  Te10      1.0  0.45496  0.57147  0.06238  1.0000
  O  Te11      1.0  0.47085  0.67137  0.00613  1.0000
  O  Te12      1.0  0.56497  0.73320  0.43449  1.0000
  Mg  Mg5       1.0  0.44127  0.60498  0.91220  1.0000
  Mg  Mg6       1.0  0.58386  0.70092  0.58465  1.0000
  C  Sn13      1.0  0.89486  0.53982  0.35023  1.0000
  C   C127      1.0  0.90083  0.50205  0.28406  1.0000
  C  Sn14      1.0  0.86694  0.47247  0.17862  1.0000
  C  Sn15      1.0  0.82626  0.48083  0.13840  1.0000
  C   C128      1.0  0.82031  0.51858  0.20454  1.0000
  C  Sn16      1.0  0.85417  0.54817  0.31002  1.0000
  O  Te13      1.0  0.92918  0.56894  0.45538  1.0000
  O  Te14      1.0  0.87368  0.43493  0.11402  1.0000
  O  Te15      1.0  0.79192  0.45167  0.03317  1.0000
  O  Te16      1.0  0.84746  0.58570  0.37458  1.0000
  Mg  Mg7       1.0  0.82216  0.40630  0.97630  1.0000
  Mg  Mg8       1.0  0.90413  0.61554  0.51226  1.0000
  C  Sn17      1.0  0.14051  0.62848  0.82657  1.0000
  C   C129      1.0  0.09769  0.60588  0.73841  1.0000
  C  Sn18      1.0  0.10017  0.62555  0.60654  1.0000
  C  Sn19      1.0  0.14642  0.66868  0.56180  1.0000
  C   C130      1.0  0.18921  0.69124  0.64992  1.0000
  C  Sn20      1.0  0.18676  0.67161  0.78184  1.0000
  O  Te17      1.0  0.13716  0.60818  0.95797  1.0000
  O  Te18      1.0  0.05686  0.60231  0.52027  1.0000
  O  Te19      1.0  0.14974  0.68897  0.43029  1.0000
  O  Te20      1.0  0.23004  0.69481  0.86807  1.0000
  Mg  Mg9       1.0  0.08043  0.64396  0.35055  1.0000
  Mg  Mg10      1.0  0.20135  0.65202  0.03777  1.0000
  C  Sn21      1.0  0.47523  0.12241  0.17841  1.0000
  C   C131      1.0  0.50509  0.10579  0.24840  1.0000
  C  Sn22      1.0  0.53214  0.13088  0.36809  1.0000
  C  Sn23      1.0  0.52926  0.17344  0.41894  1.0000
  C   C132      1.0  0.49941  0.19003  0.34898  1.0000
  C  Sn24      1.0  0.47235  0.16498  0.22926  1.0000
  O  Te21      1.0  0.44850  0.09676  0.05895  1.0000
  O  Te22      1.0  0.56176  0.11357  0.43625  1.0000
  O  Te23      1.0  0.55602  0.19909  0.53849  1.0000
  O  Te24      1.0  0.44274  0.18226  0.16113  1.0000
  Mg  Mg11      1.0  0.59115  0.16111  0.59490  1.0000
  Mg  Mg12      1.0  0.41332  0.13473  0.00252  1.0000
  C  Sn25      1.0  0.53677  0.35637  0.23018  1.0000
  C   C133      1.0  0.49775  0.31324  0.29556  1.0000
  C  Sn26      1.0  0.45332  0.31272  0.33754  1.0000
  C  Sn27      1.0  0.44775  0.35620  0.31359  1.0000
  C   C134      1.0  0.48675  0.39930  0.24823  1.0000
  C  Sn28      1.0  0.53121  0.39986  0.20623  1.0000
  O  Te25      1.0  0.58086  0.35605  0.18908  1.0000
  O  Te26      1.0  0.41484  0.26916  0.40275  1.0000
  O  Te27      1.0  0.40361  0.35649  0.35476  1.0000
  O  Te28      1.0  0.56967  0.44338  0.14104  1.0000
  Mg  Mg13      1.0  0.36191  0.28807  0.43959  1.0000
  Mg  Mg14      1.0  0.62259  0.42451  0.10409  1.0000
  C  Sn29      1.0  0.45706  0.81862  0.26885  1.0000
  C   C135      1.0  0.48657  0.80932  0.17623  1.0000
  C  Sn30      1.0  0.52684  0.84999  0.10674  1.0000
  C  Sn31      1.0  0.53786  0.90103  0.13038  1.0000
  C   C136      1.0  0.50837  0.91030  0.22296  1.0000
  C  Sn32      1.0  0.46809  0.86965  0.29249  1.0000
  O  Te29      1.0  0.41700  0.77737  0.33718  1.0000
  O  Te30      1.0  0.55579  0.83974  0.01460  1.0000
  O  Te31      1.0  0.57797  0.94228  0.06194  1.0000
  O  Te32      1.0  0.43916  0.87988  0.38460  1.0000
  Mg  Mg15      1.0  0.61160  0.90996  0.94639  1.0000
  Mg  Mg16      1.0  0.38852  0.81087  0.45290  1.0000
  C  Sn33      1.0  0.43523  0.31653  0.82483  1.0000
  C   C137      1.0  0.46163  0.29729  0.75186  1.0000
  C  Sn34      1.0  0.50764  0.33072  0.68685  1.0000
  C  Sn35      1.0  0.52769  0.38452  0.69501  1.0000
  C   C138      1.0  0.50130  0.40374  0.76796  1.0000
  C  Sn36      1.0  0.45528  0.37034  0.83298  1.0000
  O  Te33      1.0  0.38930  0.28240  0.88902  1.0000
  O  Te34      1.0  0.53334  0.31057  0.61446  1.0000
  O  Te35      1.0  0.57365  0.41866  0.63073  1.0000
  O  Te36      1.0  0.42959  0.39046  0.90535  1.0000
  Mg  Mg17      1.0  0.59454  0.37264  0.54440  1.0000
  Mg  Mg18      1.0  0.36840  0.32843  0.97551  1.0000
  C  Sn37      1.0  0.64916  0.10326  0.87129  1.0000
  C   C139      1.0  0.60622  0.09855  0.80080  1.0000
  C  Sn38      1.0  0.61212  0.13254  0.69492  1.0000
  C  Sn39      1.0  0.66198  0.17204  0.65867  1.0000
  C   C140      1.0  0.70489  0.17673  0.72912  1.0000
  C  Sn40      1.0  0.69902  0.14276  0.83504  1.0000
  O  Te37      1.0  0.64236  0.06885  0.97679  1.0000
  O  Te38      1.0  0.56862  0.12707  0.62597  1.0000
  O  Te39      1.0  0.66876  0.20646  0.55308  1.0000
  O  Te40      1.0  0.74249  0.14821  0.90395  1.0000
  Mg  Mg19      1.0  0.59768  0.18335  0.48954  1.0000
  Mg  Mg20      1.0  0.70831  0.09077  0.04035  1.0000
  C  Sn41      1.0  0.32652  0.45313  0.10881  1.0000
  C   C141      1.0  0.30648  0.47843  0.18374  1.0000
  C  Sn42      1.0  0.33825  0.51929  0.27090  1.0000
  C  Sn43      1.0  0.39117  0.53522  0.28337  1.0000
  C   C142      1.0  0.41119  0.50994  0.20846  1.0000
  C  Sn44      1.0  0.37944  0.46907  0.12128  1.0000
  O  Te41      1.0  0.29405  0.41238  0.02228  1.0000
  O  Te42      1.0  0.31733  0.54398  0.34480  1.0000
  O  Te43      1.0  0.42364  0.57601  0.36999  1.0000
  O  Te44      1.0  0.40033  0.44440  0.04739  1.0000
  Mg  Mg21      1.0  0.37713  0.59750  0.44926  1.0000
  Mg  Mg22      1.0  0.34575  0.39206  0.94286  1.0000
  C  Sn45      1.0  0.35919  0.54085  0.76311  1.0000
  C   C143      1.0  0.31945  0.51064  0.67057  1.0000
  C  Sn46      1.0  0.31880  0.46954  0.60252  1.0000
  C  Sn47      1.0  0.35870  0.45837  0.62755  1.0000
  C   C144      1.0  0.39841  0.48856  0.72006  1.0000
  C  Sn48      1.0  0.39909  0.52968  0.78813  1.0000
  O  Te45      1.0  0.35906  0.58175  0.82998  1.0000
  O  Te46      1.0  0.27867  0.43990  0.51043  1.0000
  O  Te47      1.0  0.35880  0.41743  0.56058  1.0000
  O  Te48      1.0  0.43919  0.55931  0.88019  1.0000
  Mg  Mg23      1.0  0.29582  0.38824  0.44449  1.0000
  Mg  Mg24      1.0  0.42206  0.61096  0.94624  1.0000
