data_image0
_chemical_formula_structural       H48C80N8C2Sn2C2HTe2HMgC2Sn2C2HTe2HMgC2Sn2C2HTe2HMgC2Sn2C2HTe2HMgC2Sn2C2HTe2HMgC2Sn2C2HTe2HMgC2Sn2C2HTe2HMgC2Sn2C2HTe2HMg
_chemical_formula_sum              "H64 C112 N8 Sn16 Te16 Mg8"
_cell_length_a       17.6594
_cell_length_b       24.3994
_cell_length_c       9.5282
_cell_angle_alpha    76.3063
_cell_angle_beta     97.5666
_cell_angle_gamma    89.8394

_symmetry_space_group_name_H-M    'P1'
_space_group_IT_number       1

loop_
  _space_group_symop_operation_xyz
  'x, y, z'

loop_
  _atom_site_type_symbol
  _atom_site_label
  _atom_site_symmetry_multiplicity
  _atom_site_fract_x
  _atom_site_fract_y
  _atom_site_fract_z
  _atom_site_occupancy
  H   H1        1.0  0.10982  0.77678  0.21420  1.0000
  H   H2        1.0  0.89123  0.27239  0.27464  1.0000
  H   H3        1.0  0.42197  0.85210  0.15034  1.0000
  H   H4        1.0  0.50306  0.93257  0.18294  1.0000
  H   H5        1.0  0.35009  0.97753  0.45444  1.0000
  H   H6        1.0  0.27076  0.89650  0.42566  1.0000
  H   H7        1.0  0.98962  0.99101  0.43840  1.0000
  H   H8        1.0  0.02924  0.51649  0.06807  1.0000
  H   H9        1.0  0.39060  0.76743  0.27373  1.0000
  H   H10       1.0  0.61148  0.26973  0.23442  1.0000
  H   H11       1.0  0.07876  0.69288  0.34123  1.0000
  H   H12       1.0  0.99745  0.61228  0.31237  1.0000
  H   H13       1.0  0.14817  0.56587  0.03893  1.0000
  H   H14       1.0  0.22889  0.64614  0.06706  1.0000
  H   H15       1.0  0.73356  0.12968  0.13423  1.0000
  H   H16       1.0  0.65127  0.04811  0.13620  1.0000
  H   H17       1.0  0.50909  0.11024  0.40227  1.0000
  H   H18       1.0  0.59139  0.19069  0.40139  1.0000
  H   H19       1.0  0.51292  0.55180  0.05913  1.0000
  H   H20       1.0  0.46620  0.02868  0.42566  1.0000
  H   H21       1.0  0.10814  0.77393  0.71338  1.0000
  H   H22       1.0  0.89022  0.27015  0.78437  1.0000
  H   H23       1.0  0.42023  0.84889  0.64961  1.0000
  H   H24       1.0  0.59774  0.33495  0.90585  1.0000
  H   H25       1.0  0.50435  0.92689  0.68257  1.0000
  H   H26       1.0  0.51326  0.42044  0.87370  1.0000
  H   H27       1.0  0.35226  0.97739  0.94815  1.0000
  H   H28       1.0  0.61360  0.50068  0.49214  1.0000
  H   H29       1.0  0.26865  0.89861  0.91690  1.0000
  H   H30       1.0  0.70029  0.41703  0.52904  1.0000
  H   H31       1.0  0.76204  0.41436  0.86349  1.0000
  H   H32       1.0  0.84308  0.49723  0.85808  1.0000
  H   H33       1.0  0.99600  0.42796  0.62385  1.0000
  H   H34       1.0  0.91491  0.34686  0.62668  1.0000
  H   H35       1.0  0.98549  0.98691  0.93737  1.0000
  H   H36       1.0  0.03208  0.51157  0.58110  1.0000
  H   H37       1.0  0.38845  0.76723  0.77523  1.0000
  H   H38       1.0  0.61045  0.26811  0.73508  1.0000
  H   H39       1.0  0.90327  0.20514  0.61287  1.0000
  H   H40       1.0  0.98671  0.11963  0.63879  1.0000
  H   H41       1.0  0.88301  0.03517  0.01250  1.0000
  H   H42       1.0  0.79795  0.11897  0.98254  1.0000
  H   H43       1.0  0.28160  0.61186  0.91115  1.0000
  H   H44       1.0  0.36616  0.52929  0.91820  1.0000
  H   H45       1.0  0.49031  0.63326  0.60040  1.0000
  H   H46       1.0  0.40615  0.71478  0.59100  1.0000
  H   H47       1.0  0.51330  0.55044  0.56547  1.0000
  H   H48       1.0  0.47517  0.02279  0.92915  1.0000
  C   C1        1.0  0.29180  0.82091  0.26197  1.0000
  C   C2        1.0  0.70812  0.32224  0.23736  1.0000
  C   C3        1.0  0.21071  0.82247  0.24824  1.0000
  C   C4        1.0  0.78889  0.32379  0.24481  1.0000
  C   C5        1.0  0.17197  0.77382  0.23193  1.0000
  C   C6        1.0  0.82914  0.27238  0.26108  1.0000
  C   C7        1.0  0.33959  0.86874  0.28429  1.0000
  C   C8        1.0  0.40696  0.87911  0.21880  1.0000
  C   C9        1.0  0.45198  0.92427  0.23553  1.0000
  C   C10       1.0  0.43196  0.96103  0.31932  1.0000
  C   C11       1.0  0.36573  0.95022  0.38708  1.0000
  C   C12       1.0  0.32093  0.90487  0.37048  1.0000
  C   C13       1.0  0.99064  0.02393  0.33745  1.0000
  C   C14       1.0  0.02095  0.53492  0.16004  1.0000
  C   C15       1.0  0.20866  0.72306  0.22832  1.0000
  C   C16       1.0  0.79454  0.22028  0.26892  1.0000
  C   C17       1.0  0.28973  0.72154  0.24173  1.0000
  C   C18       1.0  0.71380  0.21870  0.26194  1.0000
  C   C19       1.0  0.32844  0.77026  0.25753  1.0000
  C   C20       1.0  0.67357  0.27005  0.24638  1.0000
  C   C21       1.0  0.16078  0.67508  0.20784  1.0000
  C   C22       1.0  0.66874  0.16724  0.26650  1.0000
  C   C23       1.0  0.09355  0.66537  0.27377  1.0000
  C   C24       1.0  0.04829  0.62015  0.25899  1.0000
  C   C25       1.0  0.06766  0.58287  0.17614  1.0000
  C   C26       1.0  0.13340  0.59326  0.10680  1.0000
  C   C27       1.0  0.17884  0.63840  0.12259  1.0000
  C   C28       1.0  0.68499  0.12552  0.19433  1.0000
  C   C29       1.0  0.63893  0.07947  0.19490  1.0000
  C   C30       1.0  0.57424  0.07263  0.26848  1.0000
  C   C31       1.0  0.55782  0.11394  0.34236  1.0000
  C   C32       1.0  0.60419  0.15999  0.34111  1.0000
  C   C33       1.0  0.51286  0.51963  0.16177  1.0000
  C   C34       1.0  0.47817  0.00895  0.33788  1.0000
  C   C35       1.0  0.28913  0.82014  0.75940  1.0000
  C   C36       1.0  0.70698  0.32008  0.74258  1.0000
  C   C37       1.0  0.20803  0.82110  0.74537  1.0000
  C   C38       1.0  0.78774  0.32182  0.75193  1.0000
  C   C39       1.0  0.17033  0.77180  0.73105  1.0000
  C   C40       1.0  0.82813  0.27036  0.76917  1.0000
  C   C41       1.0  0.33760  0.86791  0.78040  1.0000
  C   C42       1.0  0.65604  0.37065  0.72101  1.0000
  C   C43       1.0  0.83218  0.37357  0.74668  1.0000
  C   C44       1.0  0.40582  0.87636  0.71734  1.0000
  C   C45       1.0  0.60103  0.37138  0.81535  1.0000
  C   C46       1.0  0.45285  0.92046  0.73435  1.0000
  C   C47       1.0  0.55392  0.41886  0.79802  1.0000
  C   C48       1.0  0.43415  0.95802  0.81686  1.0000
  C   C49       1.0  0.55932  0.46681  0.68410  1.0000
  C   C50       1.0  0.36705  0.94921  0.88240  1.0000
  C   C51       1.0  0.61152  0.46511  0.58516  1.0000
  C   C52       1.0  0.31990  0.90510  0.86459  1.0000
  C   C53       1.0  0.65979  0.41796  0.60499  1.0000
  C   C54       1.0  0.81271  0.41750  0.80933  1.0000
  C   C55       1.0  0.85783  0.46419  0.80633  1.0000
  C   C56       1.0  0.92487  0.46951  0.73979  1.0000
  C   C57       1.0  0.94478  0.42578  0.67643  1.0000
  C   C58       1.0  0.89928  0.37928  0.67961  1.0000
  C   C59       1.0  0.98503  0.02018  0.83698  1.0000
  C   C60       1.0  0.02004  0.53288  0.66568  1.0000
  C   C61       1.0  0.20768  0.72100  0.72963  1.0000
  C   C62       1.0  0.79363  0.21830  0.77592  1.0000
  C   C63       1.0  0.28876  0.71994  0.74398  1.0000
  C   C64       1.0  0.71285  0.21661  0.76553  1.0000
  C   C65       1.0  0.32634  0.76930  0.75785  1.0000
  C   C66       1.0  0.67250  0.26799  0.74961  1.0000
  C   C67       1.0  0.84427  0.16776  0.79540  1.0000
  C   C68       1.0  0.33692  0.66946  0.74905  1.0000
  C   C69       1.0  0.89943  0.16791  0.70090  1.0000
  C   C70       1.0  0.94582  0.12037  0.71451  1.0000
  C   C71       1.0  0.93937  0.07138  0.82482  1.0000
  C   C72       1.0  0.88671  0.07199  0.92347  1.0000
  C   C73       1.0  0.83930  0.11926  0.90747  1.0000
  C   C74       1.0  0.32633  0.61650  0.84124  1.0000
  C   C75       1.0  0.37330  0.57017  0.84575  1.0000
  C   C76       1.0  0.43197  0.57459  0.75689  1.0000
  C   C77       1.0  0.44435  0.62793  0.66767  1.0000
  C   C78       1.0  0.39717  0.67427  0.66385  1.0000
  C   C79       1.0  0.51325  0.51821  0.66772  1.0000
  C   C80       1.0  0.48222  0.00506  0.83548  1.0000
  N   N1        1.0  0.53035  0.02574  0.25579  1.0000
  N   N2        1.0  0.47422  0.52588  0.26380  1.0000
  N   N3        1.0  0.97217  0.51667  0.24893  1.0000
  N   N4        1.0  0.02980  0.01845  0.23558  1.0000
  N   N5        1.0  0.53115  0.02359  0.74662  1.0000
  N   N6        1.0  0.47476  0.52482  0.77016  1.0000
  N   N7        1.0  0.96774  0.51714  0.74855  1.0000
  N   N8        1.0  0.02311  0.01496  0.73276  1.0000
  C   C81       1.0  0.14566  0.96550  0.64151  1.0000
  C   C82       1.0  0.08108  0.96715  0.71107  1.0000
  C  Sn1       1.0  0.05535  0.91858  0.80550  1.0000
  C  Sn2       1.0  0.09909  0.86748  0.83057  1.0000
  C   C83       1.0  0.16364  0.86628  0.76054  1.0000
  C   C84       1.0  0.18498  0.91512  0.66622  1.0000
  H   H49       1.0  0.16220  0.00329  0.56860  1.0000
  O  Te1       1.0  0.99453  0.92096  0.87406  1.0000
  O  Te2       1.0  0.07855  0.81832  0.92445  1.0000
  H   H50       1.0  0.23501  0.91384  0.61246  1.0000
  Mg  Mg1       1.0  0.98572  0.84281  0.99237  1.0000
  C   C85       1.0  0.35920  0.57804  0.35981  1.0000
  C   C86       1.0  0.41503  0.57303  0.27194  1.0000
  C  Sn3       1.0  0.43445  0.62013  0.16938  1.0000
  C  Sn4       1.0  0.39721  0.67318  0.15480  1.0000
  C   C87       1.0  0.34148  0.67776  0.24330  1.0000
  C   C88       1.0  0.32247  0.63035  0.34554  1.0000
  H   H51       1.0  0.34452  0.54137  0.43897  1.0000
  O  Te3       1.0  0.49033  0.61437  0.08243  1.0000
  O  Te4       1.0  0.41554  0.72094  0.05322  1.0000
  H   H52       1.0  0.27928  0.63425  0.41362  1.0000
  Mg  Mg2       1.0  0.56688  0.59915  0.95969  1.0000
  C   C89       1.0  0.65678  0.43568  0.08230  1.0000
  C   C90       1.0  0.66387  0.38628  0.19368  1.0000
  C  Sn5       1.0  0.61295  0.37674  0.29672  1.0000
  C  Sn6       1.0  0.55389  0.41746  0.28779  1.0000
  C   C91       1.0  0.54726  0.46672  0.17588  1.0000
  C   C92       1.0  0.59853  0.47586  0.07337  1.0000
  H   H53       1.0  0.69642  0.44273  0.00293  1.0000
  O  Te5       1.0  0.62086  0.32717  0.40732  1.0000
  O  Te6       1.0  0.50221  0.40898  0.38930  1.0000
  H   H54       1.0  0.66441  0.42150  0.98710  1.0000
  Mg  Mg3       1.0  0.53645  0.33480  0.51997  1.0000
  C   C93       1.0  0.05127  0.63065  0.77936  1.0000
  C   C94       1.0  0.05690  0.59251  0.69219  1.0000
  C  Sn7       1.0  0.11887  0.59360  0.61442  1.0000
  C  Sn8       1.0  0.17620  0.63366  0.62434  1.0000
  C   C95       1.0  0.17007  0.67161  0.71192  1.0000
  C   C96       1.0  0.10780  0.67016  0.78925  1.0000
  H   H55       1.0  0.00312  0.62951  0.83925  1.0000
  O  Te7       1.0  0.12360  0.55520  0.52780  1.0000
  O  Te8       1.0  0.23876  0.63567  0.54780  1.0000
  H   H56       1.0  0.10348  0.69967  0.85680  1.0000
  Mg  Mg4       1.0  0.21975  0.57458  0.44422  1.0000
  C   C97       1.0  0.06300  0.89936  0.34638  1.0000
  C   C98       1.0  0.06817  0.95580  0.27331  1.0000
  C  Sn9       1.0  0.12199  0.97122  0.17719  1.0000
  C  Sn10      1.0  0.17146  0.92927  0.15397  1.0000
  C   C99       1.0  0.16580  0.87291  0.22752  1.0000
  C   C100      1.0  0.11175  0.85795  0.32350  1.0000
  H   H57       1.0  0.02115  0.88777  0.42059  1.0000
  O  Te9       1.0  0.13028  0.02781  0.10512  1.0000
  O  Te10      1.0  0.22576  0.94351  0.05846  1.0000
  H   H58       1.0  0.10773  0.81424  0.37999  1.0000
  Mg  Mg5       1.0  0.28504  0.93368  0.98572  1.0000
  C   C101      1.0  0.58086  0.15265  0.83408  1.0000
  C   C102      1.0  0.65296  0.16272  0.78987  1.0000
  C  Sn11      1.0  0.68540  0.12620  0.71955  1.0000
  C  Sn12      1.0  0.64476  0.07876  0.69313  1.0000
  C   C103      1.0  0.57264  0.06908  0.73770  1.0000
  C   C104      1.0  0.54073  0.10589  0.80801  1.0000
  H   H59       1.0  0.55614  0.18114  0.88842  1.0000
  O  Te11      1.0  0.75750  0.13687  0.67615  1.0000
  O  Te12      1.0  0.67583  0.04160  0.62302  1.0000
  H   H60       1.0  0.48488  0.09810  0.84215  1.0000
  Mg  Mg6       1.0  0.77583  0.07403  0.58453  1.0000
  C   C105      1.0  0.94343  0.41305  0.16049  1.0000
  C   C106      1.0  0.93346  0.46059  0.21490  1.0000
  C  Sn13      1.0  0.87196  0.46486  0.29061  1.0000
  C  Sn14      1.0  0.81958  0.42063  0.31212  1.0000
  C   C107      1.0  0.83008  0.37322  0.25735  1.0000
  C   C108      1.0  0.89181  0.36940  0.18170  1.0000
  H   H61       1.0  0.99121  0.41008  0.10202  1.0000
  O  Te13      1.0  0.86283  0.51266  0.34420  1.0000
  O  Te14      1.0  0.75763  0.42379  0.38745  1.0000
  H   H62       1.0  0.89954  0.33257  0.13967  1.0000
  Mg  Mg7       1.0  0.76946  0.49745  0.43971  1.0000
  C   C109      1.0  0.94539  0.13902  0.19461  1.0000
  C   C110      1.0  0.95045  0.08803  0.30032  1.0000
  C  Sn15      1.0  0.89871  0.07728  0.40177  1.0000
  C  Sn16      1.0  0.84087  0.11842  0.39699  1.0000
  C   C111      1.0  0.83626  0.16928  0.29074  1.0000
  C   C112      1.0  0.88835  0.17961  0.18979  1.0000
  H   H63       1.0  0.98566  0.14701  0.11644  1.0000
  O  Te15      1.0  0.90460  0.02612  0.50669  1.0000
  O  Te16      1.0  0.78840  0.10876  0.49703  1.0000
  H   H64       1.0  0.88438  0.21908  0.10790  1.0000
  Mg  Mg8       1.0  0.81979  0.03257  0.61941  1.0000
