data_image0
_chemical_formula_structural       H48C80N8C2Sn2C2HTe2HMgC2Sn2C2HTe2HMgC2Sn2C2HTe2HMgC2Sn2C2HTe2HMgC2Sn2C2HTe2HMgC2Sn2C2HTe2HMgC2Sn2C2HTe2HMgC2Sn2C2HTe2HMg
_chemical_formula_sum              "H64 C112 N8 Sn16 Te16 Mg8"
_cell_length_a       17.2894
_cell_length_b       24.7052
_cell_length_c       10.1888
_cell_angle_alpha    89.8727
_cell_angle_beta     105.048
_cell_angle_gamma    90.0281

_symmetry_space_group_name_H-M    'P1'
_space_group_IT_number       1

loop_
  _space_group_symop_operation_xyz
  'x, y, z'

loop_
  _atom_site_type_symbol
  _atom_site_label
  _atom_site_symmetry_multiplicity
  _atom_site_fract_x
  _atom_site_fract_y
  _atom_site_fract_z
  _atom_site_occupancy
  H   H1        1.0  0.34710  0.57175  0.37972  1.0000
  H   H2        1.0  0.65417  0.42681  0.11952  1.0000
  H   H3        1.0  0.26365  0.65488  0.36819  1.0000
  H   H4        1.0  0.73390  0.34231  0.13503  1.0000
  H   H5        1.0  0.37566  0.72331  0.07524  1.0000
  H   H6        1.0  0.62756  0.28237  0.44475  1.0000
  H   H7        1.0  0.46134  0.64224  0.09167  1.0000
  H   H8        1.0  0.54640  0.36556  0.42678  1.0000
  H   H9        1.0  0.72847  0.22900  0.38314  1.0000
  H   H10       1.0  0.28787  0.22389  0.11456  1.0000
  H   H11       1.0  0.26549  0.76952  0.12324  1.0000
  H   H12       1.0  0.73886  0.77007  0.40191  1.0000
  H   H13       1.0  0.83398  0.06691  0.34649  1.0000
  H   H14       1.0  0.16306  0.93136  0.13971  1.0000
  H   H15       1.0  0.74861  0.14673  0.33509  1.0000
  H   H16       1.0  0.24784  0.85043  0.15993  1.0000
  H   H17       1.0  0.88404  0.23008  0.09767  1.0000
  H   H18       1.0  0.12234  0.77796  0.42899  1.0000
  H   H19       1.0  0.96819  0.14836  0.10315  1.0000
  H   H20       1.0  0.03670  0.86007  0.40903  1.0000
  H   H21       1.0  0.35531  0.50048  0.21478  1.0000
  H   H22       1.0  0.64739  0.50248  0.28049  1.0000
  H   H23       1.0  0.85423  0.00105  0.20937  1.0000
  H   H24       1.0  0.14553  0.00136  0.27421  1.0000
  H   H25       1.0  0.65384  0.42420  0.62568  1.0000
  H   H26       1.0  0.73625  0.34064  0.64842  1.0000
  H   H27       1.0  0.61571  0.27726  0.93573  1.0000
  H   H28       1.0  0.53325  0.36012  0.91203  1.0000
  H   H29       1.0  0.71843  0.22460  0.88264  1.0000
  H   H30       1.0  0.25179  0.23568  0.59212  1.0000
  H   H31       1.0  0.29342  0.77765  0.65837  1.0000
  H   H32       1.0  0.73455  0.76727  0.88811  1.0000
  H   H33       1.0  0.15735  0.06868  0.62656  1.0000
  H   H34       1.0  0.83941  0.92796  0.86553  1.0000
  H   H35       1.0  0.14328  0.92317  0.60882  1.0000
  H   H36       1.0  0.24047  0.15082  0.63971  1.0000
  H   H37       1.0  0.75827  0.84573  0.85498  1.0000
  H   H38       1.0  0.22652  0.84252  0.62263  1.0000
  H   H39       1.0  0.11128  0.22588  0.89799  1.0000
  H   H40       1.0  0.88637  0.77144  0.59251  1.0000
  H   H41       1.0  0.13548  0.78149  0.94998  1.0000
  H   H42       1.0  0.02734  0.14358  0.88501  1.0000
  H   H43       1.0  0.96603  0.85546  0.59862  1.0000
  H   H44       1.0  0.05018  0.86303  0.93385  1.0000
  H   H45       1.0  0.35449  0.50054  0.73006  1.0000
  H   H46       1.0  0.64447  0.49685  0.77461  1.0000
  H   H47       1.0  0.85254  0.99745  0.72190  1.0000
  H   H48       1.0  0.14278  0.99982  0.76934  1.0000
  C   C1        1.0  0.54279  0.55176  0.25894  1.0000
  C   C2        1.0  0.45899  0.55117  0.24451  1.0000
  C   C3        1.0  0.45989  0.45094  0.23872  1.0000
  C   C4        1.0  0.54406  0.45174  0.25626  1.0000
  C   C5        1.0  0.41034  0.60105  0.23675  1.0000
  C   C6        1.0  0.59347  0.40199  0.27052  1.0000
  C   C7        1.0  0.35311  0.60508  0.31294  1.0000
  C   C8        1.0  0.64859  0.39528  0.19131  1.0000
  C   C9        1.0  0.30671  0.65141  0.30750  1.0000
  C   C10       1.0  0.69311  0.34804  0.19908  1.0000
  C   C11       1.0  0.31494  0.69502  0.22297  1.0000
  C   C12       1.0  0.68495  0.30612  0.28848  1.0000
  C   C13       1.0  0.37045  0.69050  0.14399  1.0000
  C   C14       1.0  0.63257  0.31371  0.37203  1.0000
  C   C15       1.0  0.41836  0.64475  0.15261  1.0000
  C   C16       1.0  0.58706  0.36067  0.36224  1.0000
  C   C17       1.0  0.72960  0.25556  0.29674  1.0000
  C   C18       1.0  0.27456  0.25384  0.18536  1.0000
  C   C19       1.0  0.26793  0.74463  0.21398  1.0000
  C   C20       1.0  0.73506  0.74547  0.31059  1.0000
  C   C21       1.0  0.04175  0.05132  0.24976  1.0000
  C   C22       1.0  0.95789  0.05156  0.23620  1.0000
  C   C23       1.0  0.95828  0.95101  0.23968  1.0000
  C   C24       1.0  0.04233  0.95099  0.25525  1.0000
  C   C25       1.0  0.90874  0.10126  0.22737  1.0000
  C   C26       1.0  0.09216  0.90148  0.27044  1.0000
  C   C27       1.0  0.84492  0.10227  0.29000  1.0000
  C   C28       1.0  0.15388  0.89788  0.20369  1.0000
  C   C29       1.0  0.79701  0.14782  0.28504  1.0000
  C   C30       1.0  0.20142  0.85188  0.21422  1.0000
  C   C31       1.0  0.81203  0.19514  0.21816  1.0000
  C   C32       1.0  0.18867  0.80706  0.29192  1.0000
  C   C33       1.0  0.87419  0.19390  0.15223  1.0000
  C   C34       1.0  0.12966  0.81157  0.36412  1.0000
  C   C35       1.0  0.92143  0.14808  0.15660  1.0000
  C   C36       1.0  0.08208  0.85762  0.35278  1.0000
  C   C37       1.0  0.42019  0.50082  0.23385  1.0000
  C   C38       1.0  0.58262  0.50202  0.26370  1.0000
  C   C39       1.0  0.91915  0.00121  0.22929  1.0000
  C   C40       1.0  0.08081  0.00121  0.25826  1.0000
  C   C41       1.0  0.54257  0.54832  0.75755  1.0000
  C   C42       1.0  0.45918  0.54941  0.74800  1.0000
  C   C43       1.0  0.45619  0.44936  0.74356  1.0000
  C   C44       1.0  0.53947  0.44830  0.75380  1.0000
  C   C45       1.0  0.58684  0.39787  0.76607  1.0000
  C   C46       1.0  0.64593  0.39208  0.69429  1.0000
  C   C47       1.0  0.69192  0.34542  0.70614  1.0000
  C   C48       1.0  0.68104  0.30287  0.79177  1.0000
  C   C49       1.0  0.62349  0.30912  0.86629  1.0000
  C   C50       1.0  0.57690  0.35565  0.85294  1.0000
  C   C51       1.0  0.72609  0.25241  0.80255  1.0000
  C   C52       1.0  0.25781  0.25850  0.68699  1.0000
  C   C53       1.0  0.28046  0.74755  0.72937  1.0000
  C   C54       1.0  0.73682  0.74040  0.80331  1.0000
  C   C55       1.0  0.03805  0.04934  0.74744  1.0000
  C   C56       1.0  0.95475  0.04814  0.73844  1.0000
  C   C57       1.0  0.95717  0.94806  0.74372  1.0000
  C   C58       1.0  0.04075  0.94913  0.75617  1.0000
  C   C59       1.0  0.08513  0.09987  0.75334  1.0000
  C   C60       1.0  0.91004  0.89762  0.73545  1.0000
  C   C61       1.0  0.09104  0.89977  0.77095  1.0000
  C   C62       1.0  0.14685  0.10306  0.68634  1.0000
  C   C63       1.0  0.84958  0.89381  0.80481  1.0000
  C   C64       1.0  0.14301  0.89289  0.68641  1.0000
  C   C65       1.0  0.19323  0.14954  0.69233  1.0000
  C   C66       1.0  0.80423  0.84705  0.79976  1.0000
  C   C67       1.0  0.19028  0.84691  0.69461  1.0000
  C   C68       1.0  0.17974  0.19506  0.76655  1.0000
  C   C69       1.0  0.81835  0.80165  0.72568  1.0000
  C   C70       1.0  0.18827  0.80575  0.78975  1.0000
  C   C71       1.0  0.11968  0.19147  0.83674  1.0000
  C   C72       1.0  0.87700  0.80595  0.65266  1.0000
  C   C73       1.0  0.13712  0.81298  0.87585  1.0000
  C   C74       1.0  0.07300  0.14517  0.82928  1.0000
  C   C75       1.0  0.92193  0.85296  0.65741  1.0000
  C   C76       1.0  0.08932  0.85891  0.86642  1.0000
  C   C77       1.0  0.41886  0.49981  0.74232  1.0000
  C   C78       1.0  0.57989  0.49782  0.75985  1.0000
  C   C79       1.0  0.91709  0.99780  0.73618  1.0000
  C   C80       1.0  0.07825  0.99949  0.75597  1.0000
  N   N1        1.0  0.77059  0.75869  0.21786  1.0000
  N   N2        1.0  0.23165  0.75809  0.30533  1.0000
  N   N3        1.0  0.22486  0.24514  0.25882  1.0000
  N   N4        1.0  0.76910  0.24379  0.20876  1.0000
  N   N5        1.0  0.77679  0.75227  0.71582  1.0000
  N   N6        1.0  0.23101  0.75661  0.80300  1.0000
  N   N7        1.0  0.22395  0.24336  0.78034  1.0000
  N   N8        1.0  0.77021  0.24147  0.72099  1.0000
  C   C81       1.0  0.30669  0.36250  0.28554  1.0000
  C   C82       1.0  0.30907  0.31681  0.20609  1.0000
  C  Sn1       1.0  0.36767  0.31215  0.13469  1.0000
  C  Sn2       1.0  0.42486  0.35408  0.14321  1.0000
  C   C83       1.0  0.42200  0.39961  0.22305  1.0000
  C   C84       1.0  0.36310  0.40386  0.29405  1.0000
  H   H49       1.0  0.26114  0.36578  0.34053  1.0000
  O  Te1       1.0  0.36918  0.26623  0.05574  1.0000
  O  Te2       1.0  0.48409  0.35045  0.07294  1.0000
  H   H50       1.0  0.36129  0.43923  0.35562  1.0000
  Mg  Mg1       1.0  0.61445  0.27908  0.97875  1.0000
  C   C85       1.0  0.31619  0.63854  0.82808  1.0000
  C   C86       1.0  0.32099  0.68682  0.75892  1.0000
  C  Sn3       1.0  0.37107  0.69055  0.67148  1.0000
  C  Sn4       1.0  0.41710  0.64501  0.65310  1.0000
  C   C87       1.0  0.41183  0.59688  0.72267  1.0000
  C   C88       1.0  0.36155  0.59360  0.80997  1.0000
  H   H51       1.0  0.27726  0.63599  0.89556  1.0000
  O  Te3       1.0  0.37517  0.73910  0.60321  1.0000
  O  Te4       1.0  0.46761  0.64762  0.56627  1.0000
  H   H52       1.0  0.35781  0.55620  0.86343  1.0000
  Mg  Mg2       1.0  0.45272  0.72270  0.49584  1.0000
  C   C89       1.0  0.15606  0.11324  0.15293  1.0000
  C   C90       1.0  0.10737  0.09967  0.23815  1.0000
  C  Sn5       1.0  0.09418  0.13700  0.33285  1.0000
  C  Sn6       1.0  0.13049  0.18886  0.34216  1.0000
  C   C91       1.0  0.17905  0.20206  0.25639  1.0000
  C   C92       1.0  0.19186  0.16439  0.16201  1.0000
  H   H53       1.0  0.16594  0.08411  0.07986  1.0000
  O  Te5       1.0  0.04539  0.12276  0.41724  1.0000
  O  Te6       1.0  0.11829  0.22695  0.43587  1.0000
  H   H54       1.0  0.22952  0.17493  0.09599  1.0000
  Mg  Mg3       1.0  0.04689  0.18853  0.52871  1.0000
  C   C93       1.0  0.36904  0.32522  0.59786  1.0000
  C   C94       1.0  0.31966  0.30786  0.67863  1.0000
  C  Sn7       1.0  0.31120  0.33938  0.78773  1.0000
  C  Sn8       1.0  0.35301  0.38920  0.81622  1.0000
  C   C95       1.0  0.40222  0.40623  0.73475  1.0000
  C   C96       1.0  0.41028  0.37436  0.62586  1.0000
  H   H55       1.0  0.37525  0.30058  0.51356  1.0000
  O  Te7       1.0  0.26165  0.32143  0.86742  1.0000
  O  Te8       1.0  0.34561  0.42151  0.92460  1.0000
  H   H56       1.0  0.44847  0.38783  0.56329  1.0000
  Mg  Mg4       1.0  0.11798  0.38056  0.00388  1.0000
  C   C97       1.0  0.61670  0.67848  0.87941  1.0000
  C   C98       1.0  0.68040  0.68900  0.82219  1.0000
  C  Sn9       1.0  0.69885  0.65264  0.72994  1.0000
  C  Sn10      1.0  0.65255  0.60490  0.69449  1.0000
  C   C99       1.0  0.58891  0.59476  0.75223  1.0000
  C   C100      1.0  0.57098  0.63141  0.84447  1.0000
  H   H57       1.0  0.60279  0.70685  0.95072  1.0000
  O  Te9       1.0  0.76271  0.66377  0.67376  1.0000
  O  Te10      1.0  0.66967  0.56788  0.60253  1.0000
  H   H58       1.0  0.52163  0.62327  0.88869  1.0000
  Mg  Mg5       1.0  0.76264  0.60097  0.55321  1.0000
  C   C101      1.0  0.81065  0.86608  0.31968  1.0000
  C   C102      1.0  0.80583  0.81955  0.24022  1.0000
  C  Sn11      1.0  0.85756  0.81265  0.15656  1.0000
  C  Sn12      1.0  0.91513  0.85315  0.15262  1.0000
  C   C103      1.0  0.91950  0.89954  0.23257  1.0000
  C   C104      1.0  0.86743  0.90604  0.31589  1.0000
  H   H59       1.0  0.77039  0.87110  0.38420  1.0000
  O  Te11      1.0  0.85191  0.76592  0.07779  1.0000
  O  Te12      1.0  0.96758  0.84728  0.06995  1.0000
  H   H60       1.0  0.87121  0.94205  0.37747  1.0000
  Mg  Mg6       1.0  0.08958  0.77559  0.98128  1.0000
  C   C105      1.0  0.89378  0.15098  0.61648  1.0000
  C   C106      1.0  0.90844  0.10791  0.70880  1.0000
  C  Sn13      1.0  0.87037  0.10582  0.81404  1.0000
  C  Sn14      1.0  0.81664  0.14767  0.82682  1.0000
  C   C107      1.0  0.80233  0.19056  0.73388  1.0000
  C   C108      1.0  0.84077  0.19226  0.62898  1.0000
  H   H61       1.0  0.92349  0.15229  0.53527  1.0000
  O  Te13      1.0  0.88572  0.06251  0.90541  1.0000
  O  Te14      1.0  0.77776  0.14657  0.93102  1.0000
  H   H62       1.0  0.82937  0.22559  0.55747  1.0000
  Mg  Mg7       1.0  0.66526  0.07995  0.03038  1.0000
  C   C109      1.0  0.65898  0.61812  0.17817  1.0000
  C   C110      1.0  0.60893  0.60080  0.25779  1.0000
  C  Sn15      1.0  0.59571  0.63392  0.36081  1.0000
  C  Sn16      1.0  0.63337  0.68532  0.38428  1.0000
  C   C111      1.0  0.68329  0.70229  0.30400  1.0000
  C   C112      1.0  0.69613  0.66882  0.20121  1.0000
  H   H63       1.0  0.66888  0.59224  0.09859  1.0000
  O  Te15      1.0  0.54555  0.61598  0.43945  1.0000
  O  Te16      1.0  0.62117  0.71924  0.48653  1.0000
  H   H64       1.0  0.73484  0.68225  0.13952  1.0000
  Mg  Mg8       1.0  0.54762  0.67677  0.56674  1.0000
