data_image0
_chemical_formula_structural       H48C80N8SnCSn2CSnTe4Mg2SnCSn2CSnTe4Mg2SnCSn2CSnTe4Mg2SnCSn2CSnTe4Mg2SnCSn2CSnTe4Mg2SnCSn2CSnTe4Mg2SnCSn2CSnTe4Mg2SnCSn2CSnTe4Mg2
_chemical_formula_sum              "H48 C96 N8 Sn32 Te32 Mg16"
_cell_length_a       17.6594
_cell_length_b       24.3994
_cell_length_c       9.5282
_cell_angle_alpha    76.3063
_cell_angle_beta     97.5666
_cell_angle_gamma    89.8394

_symmetry_space_group_name_H-M    'P1'
_space_group_IT_number       1

loop_
  _space_group_symop_operation_xyz
  'x, y, z'

loop_
  _atom_site_type_symbol
  _atom_site_label
  _atom_site_symmetry_multiplicity
  _atom_site_fract_x
  _atom_site_fract_y
  _atom_site_fract_z
  _atom_site_occupancy
  H   H1        1.0  0.10982  0.77678  0.21420  1.0000
  H   H2        1.0  0.89123  0.27239  0.27464  1.0000
  H   H3        1.0  0.59362  0.33493  0.39159  1.0000
  H   H4        1.0  0.50787  0.42000  0.35781  1.0000
  H   H5        1.0  0.61993  0.50536  0.99704  1.0000
  H   H6        1.0  0.70801  0.42256  0.03539  1.0000
  H   H7        1.0  0.21932  0.93093  0.08449  1.0000
  H   H8        1.0  0.13703  0.01396  0.08337  1.0000
  H   H9        1.0  0.01414  0.90989  0.40355  1.0000
  H   H10       1.0  0.09630  0.82745  0.40570  1.0000
  H   H11       1.0  0.98962  0.99101  0.43840  1.0000
  H   H12       1.0  0.02924  0.51649  0.06807  1.0000
  H   H13       1.0  0.39060  0.76743  0.27373  1.0000
  H   H14       1.0  0.61148  0.26973  0.23442  1.0000
  H   H15       1.0  0.07876  0.69288  0.34123  1.0000
  H   H16       1.0  0.90991  0.20967  0.11653  1.0000
  H   H17       1.0  0.99745  0.61228  0.31237  1.0000
  H   H18       1.0  0.99623  0.12510  0.14637  1.0000
  H   H19       1.0  0.14817  0.56587  0.03893  1.0000
  H   H20       1.0  0.88290  0.03646  0.50228  1.0000
  H   H21       1.0  0.22889  0.64614  0.06706  1.0000
  H   H22       1.0  0.79428  0.11895  0.46662  1.0000
  H   H23       1.0  0.73356  0.12968  0.13423  1.0000
  H   H24       1.0  0.65127  0.04811  0.13620  1.0000
  H   H25       1.0  0.50909  0.11024  0.40227  1.0000
  H   H26       1.0  0.59139  0.19069  0.40139  1.0000
  H   H27       1.0  0.51292  0.55180  0.05913  1.0000
  H   H28       1.0  0.46620  0.02868  0.42566  1.0000
  H   H29       1.0  0.10814  0.77393  0.71338  1.0000
  H   H30       1.0  0.89022  0.27015  0.78437  1.0000
  H   H31       1.0  0.42023  0.84889  0.64961  1.0000
  H   H32       1.0  0.59774  0.33495  0.90585  1.0000
  H   H33       1.0  0.50435  0.92689  0.68257  1.0000
  H   H34       1.0  0.51326  0.42044  0.87370  1.0000
  H   H35       1.0  0.35226  0.97739  0.94815  1.0000
  H   H36       1.0  0.61360  0.50068  0.49214  1.0000
  H   H37       1.0  0.26865  0.89861  0.91690  1.0000
  H   H38       1.0  0.70029  0.41703  0.52904  1.0000
  H   H39       1.0  0.98549  0.98691  0.93737  1.0000
  H   H40       1.0  0.03208  0.51157  0.58110  1.0000
  H   H41       1.0  0.38845  0.76723  0.77523  1.0000
  H   H42       1.0  0.61045  0.26811  0.73508  1.0000
  H   H43       1.0  0.73967  0.12575  0.64878  1.0000
  H   H44       1.0  0.65878  0.04378  0.64442  1.0000
  H   H45       1.0  0.50103  0.11101  0.87287  1.0000
  H   H46       1.0  0.58282  0.19125  0.88165  1.0000
  H   H47       1.0  0.51330  0.55044  0.56547  1.0000
  H   H48       1.0  0.47517  0.02279  0.92915  1.0000
  C   C1        1.0  0.29180  0.82091  0.26197  1.0000
  C   C2        1.0  0.70812  0.32224  0.23736  1.0000
  C   C3        1.0  0.21071  0.82247  0.24824  1.0000
  C   C4        1.0  0.78889  0.32379  0.24481  1.0000
  C   C5        1.0  0.17197  0.77382  0.23193  1.0000
  C   C6        1.0  0.82914  0.27238  0.26108  1.0000
  C   C7        1.0  0.65738  0.37284  0.21623  1.0000
  C   C8        1.0  0.16387  0.87315  0.24612  1.0000
  C   C9        1.0  0.59907  0.37224  0.30465  1.0000
  C   C10       1.0  0.55131  0.41940  0.28691  1.0000
  C   C11       1.0  0.55944  0.46850  0.17794  1.0000
  C   C12       1.0  0.61538  0.46843  0.08548  1.0000
  C   C13       1.0  0.66430  0.42172  0.10607  1.0000
  C   C14       1.0  0.17491  0.92630  0.15527  1.0000
  C   C15       1.0  0.12942  0.97286  0.15451  1.0000
  C   C16       1.0  0.07182  0.96849  0.24581  1.0000
  C   C17       1.0  0.05931  0.91500  0.33436  1.0000
  C   C18       1.0  0.10491  0.86836  0.33424  1.0000
  C   C19       1.0  0.99064  0.02393  0.33745  1.0000
  C   C20       1.0  0.02095  0.53492  0.16004  1.0000
  C   C21       1.0  0.20866  0.72306  0.22832  1.0000
  C   C22       1.0  0.79454  0.22028  0.26892  1.0000
  C   C23       1.0  0.28973  0.72154  0.24173  1.0000
  C   C24       1.0  0.71380  0.21870  0.26194  1.0000
  C   C25       1.0  0.32844  0.77026  0.25753  1.0000
  C   C26       1.0  0.67357  0.27005  0.24638  1.0000
  C   C27       1.0  0.16078  0.67508  0.20784  1.0000
  C   C28       1.0  0.84534  0.16987  0.28830  1.0000
  C   C29       1.0  0.66874  0.16724  0.26650  1.0000
  C   C30       1.0  0.09355  0.66537  0.27377  1.0000
  C   C31       1.0  0.90419  0.17151  0.20065  1.0000
  C   C32       1.0  0.04829  0.62015  0.25899  1.0000
  C   C33       1.0  0.95238  0.12469  0.21684  1.0000
  C   C34       1.0  0.06766  0.58287  0.17614  1.0000
  C   C35       1.0  0.94408  0.07488  0.32351  1.0000
  C   C36       1.0  0.13340  0.59326  0.10680  1.0000
  C   C37       1.0  0.88762  0.07396  0.41551  1.0000
  C   C38       1.0  0.17884  0.63840  0.12259  1.0000
  C   C39       1.0  0.83829  0.12037  0.39628  1.0000
  C   C40       1.0  0.68499  0.12552  0.19433  1.0000
  C   C41       1.0  0.63893  0.07947  0.19490  1.0000
  C   C42       1.0  0.57424  0.07263  0.26848  1.0000
  C   C43       1.0  0.55782  0.11394  0.34236  1.0000
  C   C44       1.0  0.60419  0.15999  0.34111  1.0000
  C   C45       1.0  0.51286  0.51963  0.16177  1.0000
  C   C46       1.0  0.47817  0.00895  0.33788  1.0000
  C   C47       1.0  0.28913  0.82014  0.75940  1.0000
  C   C48       1.0  0.70698  0.32008  0.74258  1.0000
  C   C49       1.0  0.20803  0.82110  0.74537  1.0000
  C   C50       1.0  0.78774  0.32182  0.75193  1.0000
  C   C51       1.0  0.17033  0.77180  0.73105  1.0000
  C   C52       1.0  0.82813  0.27036  0.76917  1.0000
  C   C53       1.0  0.33760  0.86791  0.78040  1.0000
  C   C54       1.0  0.65604  0.37065  0.72101  1.0000
  C   C55       1.0  0.40582  0.87636  0.71734  1.0000
  C   C56       1.0  0.60103  0.37138  0.81535  1.0000
  C   C57       1.0  0.45285  0.92046  0.73435  1.0000
  C   C58       1.0  0.55392  0.41886  0.79802  1.0000
  C   C59       1.0  0.43415  0.95802  0.81686  1.0000
  C   C60       1.0  0.55932  0.46681  0.68410  1.0000
  C   C61       1.0  0.36705  0.94921  0.88240  1.0000
  C   C62       1.0  0.61152  0.46511  0.58516  1.0000
  C   C63       1.0  0.31990  0.90510  0.86459  1.0000
  C   C64       1.0  0.65979  0.41796  0.60499  1.0000
  C   C65       1.0  0.98503  0.02018  0.83698  1.0000
  C   C66       1.0  0.02004  0.53288  0.66568  1.0000
  C   C67       1.0  0.20768  0.72100  0.72963  1.0000
  C   C68       1.0  0.79363  0.21830  0.77592  1.0000
  C   C69       1.0  0.28876  0.71994  0.74398  1.0000
  C   C70       1.0  0.71285  0.21661  0.76553  1.0000
  C   C71       1.0  0.32634  0.76930  0.75785  1.0000
  C   C72       1.0  0.67250  0.26799  0.74961  1.0000
  C   C73       1.0  0.66820  0.16520  0.76618  1.0000
  C   C74       1.0  0.68837  0.12221  0.70087  1.0000
  C   C75       1.0  0.64295  0.07602  0.69760  1.0000
  C   C76       1.0  0.57479  0.07035  0.76044  1.0000
  C   C77       1.0  0.55379  0.11339  0.82498  1.0000
  C   C78       1.0  0.59964  0.15930  0.82830  1.0000
  C   C79       1.0  0.51325  0.51821  0.66772  1.0000
  C   C80       1.0  0.48222  0.00506  0.83548  1.0000
  N   N1        1.0  0.53035  0.02574  0.25579  1.0000
  N   N2        1.0  0.47422  0.52588  0.26380  1.0000
  N   N3        1.0  0.97217  0.51667  0.24893  1.0000
  N   N4        1.0  0.02980  0.01845  0.23558  1.0000
  N   N5        1.0  0.53115  0.02359  0.74662  1.0000
  N   N6        1.0  0.47476  0.52482  0.77016  1.0000
  N   N7        1.0  0.96774  0.51714  0.74855  1.0000
  N   N8        1.0  0.02311  0.01496  0.73276  1.0000
  C  Sn1       1.0  0.44947  0.64494  0.18140  1.0000
  C   C81       1.0  0.44696  0.58974  0.26513  1.0000
  C  Sn2       1.0  0.38289  0.57207  0.33327  1.0000
  C  Sn3       1.0  0.31999  0.61035  0.31733  1.0000
  C   C82       1.0  0.32252  0.66551  0.23363  1.0000
  C  Sn4       1.0  0.38658  0.68322  0.16546  1.0000
  O  Te1       1.0  0.51411  0.66169  0.11425  1.0000
  O  Te2       1.0  0.38170  0.51669  0.41646  1.0000
  O  Te3       1.0  0.25533  0.59355  0.38457  1.0000
  O  Te4       1.0  0.38778  0.73856  0.08230  1.0000
  Mg  Mg1       1.0  0.28078  0.51380  0.48658  1.0000
  Mg  Mg2       1.0  0.48865  0.74149  0.01207  1.0000
  C  Sn5       1.0  0.85859  0.07382  0.90142  1.0000
  C   C83       1.0  0.91668  0.06703  0.81987  1.0000
  C  Sn6       1.0  0.94468  0.11387  0.72873  1.0000
  C  Sn7       1.0  0.91402  0.16865  0.71894  1.0000
  C   C84       1.0  0.85599  0.17541  0.80047  1.0000
  C  Sn8       1.0  0.82794  0.12859  0.89164  1.0000
  O  Te5       1.0  0.83147  0.02639  0.99184  1.0000
  O  Te6       1.0  0.00275  0.10602  0.64822  1.0000
  O  Te7       1.0  0.94120  0.21608  0.62843  1.0000
  O  Te8       1.0  0.76992  0.13642  0.97212  1.0000
  Mg  Mg3       1.0  0.02079  0.18375  0.54046  1.0000
  Mg  Mg4       1.0  0.68045  0.15133  0.07998  1.0000
  C  Sn9       1.0  0.92722  0.42495  0.12581  1.0000
  C   C85       1.0  0.92025  0.46912  0.19413  1.0000
  C  Sn10      1.0  0.87174  0.46502  0.30046  1.0000
  C  Sn11      1.0  0.82935  0.41572  0.33940  1.0000
  C   C86       1.0  0.83635  0.37158  0.27112  1.0000
  C  Sn12      1.0  0.88483  0.37565  0.16475  1.0000
  O  Te9       1.0  0.97606  0.42996  0.01981  1.0000
  O  Te10      1.0  0.86570  0.50974  0.36721  1.0000
  O  Te11      1.0  0.78049  0.41074  0.44549  1.0000
  O  Te12      1.0  0.89090  0.33097  0.09805  1.0000
  Mg  Mg5       1.0  0.79166  0.48296  0.50537  1.0000
  Mg  Mg6       1.0  0.03634  0.26509  0.95993  1.0000
  C  Sn13      1.0  0.43328  0.92390  0.19011  1.0000
  C   C87       1.0  0.42359  0.96219  0.27518  1.0000
  C  Sn14      1.0  0.37404  0.95083  0.38055  1.0000
  C  Sn15      1.0  0.33337  0.90014  0.40140  1.0000
  C   C88       1.0  0.34308  0.86188  0.31639  1.0000
  C  Sn16      1.0  0.39261  0.87321  0.21096  1.0000
  O  Te13      1.0  0.48311  0.93612  0.08541  1.0000
  O  Te14      1.0  0.36915  0.98976  0.46424  1.0000
  O  Te15      1.0  0.28351  0.88795  0.50621  1.0000
  O  Te16      1.0  0.40139  0.83431  0.12733  1.0000
  Mg  Mg7       1.0  0.29471  0.95412  0.59319  1.0000
  Mg  Mg8       1.0  0.54725  0.77729  0.99840  1.0000
  C  Sn17      1.0  0.09127  0.64558  0.81303  1.0000
  C   C89       1.0  0.15776  0.66156  0.75128  1.0000
  C  Sn18      1.0  0.17605  0.64015  0.63585  1.0000
  C  Sn19      1.0  0.12682  0.60200  0.58094  1.0000
  C   C90       1.0  0.06037  0.58604  0.64266  1.0000
  C  Sn20      1.0  0.04204  0.60743  0.75812  1.0000
  O  Te17      1.0  0.07412  0.66752  0.92834  1.0000
  O  Te18      1.0  0.24285  0.65674  0.57593  1.0000
  O  Te19      1.0  0.14403  0.58006  0.46554  1.0000
  O  Te20      1.0  0.97528  0.59087  0.81801  1.0000
  Mg  Mg9       1.0  0.24150  0.61534  0.42029  1.0000
  Mg  Mg10      1.0  0.97655  0.63226  0.97359  1.0000
  C  Sn21      1.0  0.18206  0.94044  0.67959  1.0000
  C   C91       1.0  0.17390  0.88439  0.75641  1.0000
  C  Sn22      1.0  0.10836  0.86601  0.81872  1.0000
  C  Sn23      1.0  0.04575  0.90444  0.80385  1.0000
  C   C92       1.0  0.05392  0.96045  0.72705  1.0000
  C  Sn24      1.0  0.11946  0.97887  0.66473  1.0000
  O  Te21      1.0  0.24815  0.95789  0.61820  1.0000
  O  Te22      1.0  0.10542  0.80977  0.89506  1.0000
  O  Te23      1.0  0.97963  0.88694  0.86533  1.0000
  O  Te24      1.0  0.12240  0.03507  0.58841  1.0000
  Mg  Mg11      1.0  0.00295  0.80615  0.95903  1.0000
  Mg  Mg12      1.0  0.22482  0.03873  0.52433  1.0000
  C  Sn25      1.0  0.34808  0.60829  0.88177  1.0000
  C   C93       1.0  0.34916  0.66315  0.79526  1.0000
  C  Sn26      1.0  0.38934  0.67431  0.67530  1.0000
  C  Sn27      1.0  0.42923  0.62971  0.64103  1.0000
  C   C94       1.0  0.42813  0.57490  0.72749  1.0000
  C  Sn28      1.0  0.38797  0.56370  0.84749  1.0000
  O  Te25      1.0  0.23613  0.69069  0.00117  1.0000
  O  Te26      1.0  0.38960  0.72950  0.59047  1.0000
  O  Te27      1.0  0.46979  0.63995  0.52152  1.0000
  O  Te28      1.0  0.38768  0.50855  0.93229  1.0000
  Mg  Mg13      1.0  0.45306  0.72215  0.43894  1.0000
  Mg  Mg14      1.0  0.25281  0.60843  0.08378  1.0000
  C  Sn29      1.0  0.92616  0.42281  0.63334  1.0000
  C   C95       1.0  0.91707  0.46824  0.69626  1.0000
  C  Sn30      1.0  0.86699  0.46528  0.79953  1.0000
  C  Sn31      1.0  0.82515  0.41586  0.84083  1.0000
  C   C96       1.0  0.83426  0.37046  0.77794  1.0000
  C  Sn32      1.0  0.88432  0.37340  0.67464  1.0000
  O  Te29      1.0  0.97654  0.42670  0.53033  1.0000
  O  Te30      1.0  0.85885  0.51125  0.86089  1.0000
  O  Te31      1.0  0.77474  0.41201  0.94392  1.0000
  O  Te32      1.0  0.89248  0.32746  0.61332  1.0000
  Mg  Mg15      1.0  0.78328  0.48571  0.99663  1.0000
  Mg  Mg16      1.0  0.96806  0.35294  0.47763  1.0000
