data_image0
_chemical_formula_structural       H72C120N12C2Sn2C2HTe2HMgC2Sn2C2HTe2HMgC2Sn2C2HTe2HMgC2Sn2C2HTe2HMgC2Sn2C2HTe2HMgC2Sn2C2HTe2HMgC2Sn2C2HTe2HMgC2Sn2C2HTe2HMgC2Sn2C2HTe2HMgC2Sn2C2HTe2HMgC2Sn2C2HTe2HMgC2Sn2C2HTe2HMg
_chemical_formula_sum              "H96 C168 N12 Sn24 Te24 Mg12"
_cell_length_a       30.0867
_cell_length_b       30.0711
_cell_length_c       8.98068
_cell_angle_alpha    91.5843
_cell_angle_beta     88.1734
_cell_angle_gamma    120.056

_symmetry_space_group_name_H-M    'P1'
_space_group_IT_number       1

loop_
  _space_group_symop_operation_xyz
  'x, y, z'

loop_
  _atom_site_type_symbol
  _atom_site_label
  _atom_site_symmetry_multiplicity
  _atom_site_fract_x
  _atom_site_fract_y
  _atom_site_fract_z
  _atom_site_occupancy
  H   H1        1.0  0.42292  0.00660  0.25615  1.0000
  H   H2        1.0  0.99453  0.41529  0.23773  1.0000
  H   H3        1.0  0.58610  0.57988  0.27335  1.0000
  H   H4        1.0  0.57810  0.99190  0.24204  1.0000
  H   H5        1.0  0.00663  0.58387  0.24553  1.0000
  H   H6        1.0  0.41796  0.42179  0.26282  1.0000
  H   H7        1.0  0.42770  0.36627  0.41343  1.0000
  H   H8        1.0  0.36766  0.94545  0.40713  1.0000
  H   H9        1.0  0.05658  0.42253  0.38212  1.0000
  H   H10       1.0  0.56371  0.63925  0.42840  1.0000
  H   H11       1.0  0.41398  0.27807  0.39306  1.0000
  H   H12       1.0  0.27795  0.87386  0.40238  1.0000
  H   H13       1.0  0.12911  0.40577  0.36564  1.0000
  H   H14       1.0  0.57032  0.72384  0.39089  1.0000
  H   H15       1.0  0.54162  0.33020  0.08366  1.0000
  H   H16       1.0  0.32352  0.78903  0.10427  1.0000
  H   H17       1.0  0.21176  0.53574  0.07965  1.0000
  H   H18       1.0  0.47346  0.66281  0.01000  1.0000
  H   H19       1.0  0.55405  0.41783  0.09968  1.0000
  H   H20       1.0  0.41326  0.86139  0.10556  1.0000
  H   H21       1.0  0.13820  0.55057  0.08930  1.0000
  H   H22       1.0  0.46558  0.57756  0.05256  1.0000
  H   H23       1.0  0.56638  0.13466  0.41531  1.0000
  H   H24       1.0  0.57372  0.43643  0.41639  1.0000
  H   H25       1.0  0.13624  0.56881  0.39803  1.0000
  H   H26       1.0  0.56452  0.21575  0.43362  1.0000
  H   H27       1.0  0.65798  0.44095  0.41690  1.0000
  H   H28       1.0  0.21588  0.65248  0.41823  1.0000
  H   H29       1.0  0.44091  0.15533  0.12307  1.0000
  H   H30       1.0  0.71881  0.56652  0.11001  1.0000
  H   H31       1.0  0.15197  0.72025  0.14190  1.0000
  H   H32       1.0  0.44325  0.07396  0.10479  1.0000
  H   H33       1.0  0.63399  0.56159  0.10986  1.0000
  H   H34       1.0  0.07326  0.63553  0.11503  1.0000
  H   H35       1.0  0.73009  0.26157  0.32676  1.0000
  H   H36       1.0  0.74125  0.47252  0.32951  1.0000
  H   H37       1.0  0.53543  0.27090  0.35265  1.0000
  H   H38       1.0  0.27013  0.73792  0.33770  1.0000
  H   H39       1.0  0.26498  0.53650  0.30377  1.0000
  H   H40       1.0  0.48758  0.74072  0.38683  1.0000
  H   H41       1.0  0.42338  0.00708  0.75583  1.0000
  H   H42       1.0  0.99268  0.41811  0.73632  1.0000
  H   H43       1.0  0.58112  0.57647  0.73308  1.0000
  H   H44       1.0  0.57899  0.99360  0.74725  1.0000
  H   H45       1.0  0.00558  0.58711  0.74348  1.0000
  H   H46       1.0  0.41313  0.41951  0.74814  1.0000
  H   H47       1.0  0.93944  0.57758  0.89359  1.0000
  H   H48       1.0  0.58003  0.63570  0.84925  1.0000
  H   H49       1.0  0.86684  0.59427  0.87886  1.0000
  H   H50       1.0  0.59661  0.72424  0.82988  1.0000
  H   H51       1.0  0.79380  0.47006  0.56280  1.0000
  H   H52       1.0  0.45570  0.66858  0.59582  1.0000
  H   H53       1.0  0.86758  0.45491  0.57336  1.0000
  H   H54       1.0  0.44121  0.58029  0.60425  1.0000
  H   H55       1.0  0.56845  0.13801  0.90839  1.0000
  H   H56       1.0  0.13238  0.57264  0.90792  1.0000
  H   H57       1.0  0.42269  0.56140  0.90724  1.0000
  H   H58       1.0  0.56377  0.21765  0.92873  1.0000
  H   H59       1.0  0.21272  0.65639  0.92456  1.0000
  H   H60       1.0  0.33906  0.55680  0.91722  1.0000
  H   H61       1.0  0.43382  0.15154  0.64139  1.0000
  H   H62       1.0  0.15287  0.72076  0.62069  1.0000
  H   H63       1.0  0.28051  0.43117  0.60026  1.0000
  H   H64       1.0  0.43964  0.07197  0.61675  1.0000
  H   H65       1.0  0.07367  0.63597  0.59813  1.0000
  H   H66       1.0  0.36571  0.43673  0.58823  1.0000
  H   H67       1.0  0.72968  0.26349  0.81625  1.0000
  H   H68       1.0  0.73669  0.46961  0.81870  1.0000
  H   H69       1.0  0.53150  0.27010  0.85161  1.0000
  H   H70       1.0  0.26864  0.73929  0.83050  1.0000
  H   H71       1.0  0.25857  0.52917  0.82278  1.0000
  H   H72       1.0  0.46843  0.73056  0.83747  1.0000
  C   C1        1.0  0.55026  0.04489  0.24886  1.0000
  C   C2        1.0  0.95476  0.50309  0.23870  1.0000
  C   C3        1.0  0.49906  0.45174  0.26470  1.0000
  C   C4        1.0  0.45083  0.95374  0.25281  1.0000
  C   C5        1.0  0.04666  0.49626  0.24114  1.0000
  C   C6        1.0  0.50519  0.54973  0.26363  1.0000
  C   C7        1.0  0.50508  0.04890  0.25275  1.0000
  C   C8        1.0  0.95121  0.45406  0.23876  1.0000
  C   C9        1.0  0.54776  0.49759  0.26787  1.0000
  C   C10       1.0  0.49603  0.94981  0.24824  1.0000
  C   C11       1.0  0.04999  0.54526  0.24567  1.0000
  C   C12       1.0  0.45630  0.50408  0.26130  1.0000
  C   C13       1.0  0.45733  0.00333  0.25347  1.0000
  C   C14       1.0  0.99726  0.45275  0.23885  1.0000
  C   C15       1.0  0.54890  0.54481  0.27044  1.0000
  C   C16       1.0  0.54377  0.99533  0.24557  1.0000
  C   C17       1.0  0.00401  0.54647  0.24330  1.0000
  C   C18       1.0  0.45519  0.45684  0.26399  1.0000
  C   C19       1.0  0.49160  0.39907  0.25559  1.0000
  C   C20       1.0  0.39759  0.90951  0.25397  1.0000
  C   C21       1.0  0.09130  0.48777  0.23548  1.0000
  C   C22       1.0  0.51259  0.60183  0.24458  1.0000
  C   C23       1.0  0.50464  0.09800  0.26114  1.0000
  C   C24       1.0  0.59786  0.49936  0.26693  1.0000
  C   C25       1.0  0.09820  0.59551  0.25737  1.0000
  C   C26       1.0  0.45181  0.35847  0.33679  1.0000
  C   C27       1.0  0.35820  0.91192  0.33690  1.0000
  C   C28       1.0  0.08983  0.44665  0.31175  1.0000
  C   C29       1.0  0.54385  0.64404  0.33638  1.0000
  C   C30       1.0  0.44401  0.30872  0.32677  1.0000
  C   C31       1.0  0.30757  0.87163  0.33556  1.0000
  C   C32       1.0  0.13078  0.43728  0.30434  1.0000
  C   C33       1.0  0.54745  0.69173  0.31625  1.0000
  C   C34       1.0  0.47711  0.29818  0.23842  1.0000
  C   C35       1.0  0.29487  0.82627  0.25466  1.0000
  C   C36       1.0  0.17619  0.47047  0.22524  1.0000
  C   C37       1.0  0.52078  0.69845  0.20130  1.0000
  C   C38       1.0  0.51667  0.33825  0.15572  1.0000
  C   C39       1.0  0.33375  0.82347  0.17097  1.0000
  C   C40       1.0  0.17781  0.51119  0.14692  1.0000
  C   C41       1.0  0.49237  0.65718  0.10280  1.0000
  C   C42       1.0  0.52316  0.38741  0.16370  1.0000
  C   C43       1.0  0.38387  0.86448  0.17024  1.0000
  C   C44       1.0  0.13595  0.51897  0.15084  1.0000
  C   C45       1.0  0.48814  0.60987  0.12627  1.0000
  C   C46       1.0  0.53868  0.13898  0.35244  1.0000
  C   C47       1.0  0.60560  0.46531  0.35133  1.0000
  C   C48       1.0  0.13948  0.60179  0.34212  1.0000
  C   C49       1.0  0.53782  0.18471  0.36138  1.0000
  C   C50       1.0  0.65279  0.46757  0.34986  1.0000
  C   C51       1.0  0.18439  0.64895  0.35275  1.0000
  C   C52       1.0  0.50229  0.19105  0.27978  1.0000
  C   C53       1.0  0.69436  0.50440  0.26443  1.0000
  C   C54       1.0  0.18942  0.69250  0.28238  1.0000
  C   C55       1.0  0.46764  0.15010  0.18894  1.0000
  C   C56       1.0  0.68719  0.53885  0.17946  1.0000
  C   C57       1.0  0.14803  0.68702  0.19931  1.0000
  C   C58       1.0  0.46895  0.10453  0.17981  1.0000
  C   C59       1.0  0.63966  0.53614  0.18066  1.0000
  C   C60       1.0  0.10366  0.63934  0.18595  1.0000
  C   C61       1.0  0.76251  0.25861  0.27720  1.0000
  C   C62       1.0  0.74263  0.50410  0.26637  1.0000
  C   C63       1.0  0.50347  0.24019  0.28947  1.0000
  C   C64       1.0  0.23793  0.74078  0.29330  1.0000
  C   C65       1.0  0.26208  0.50040  0.26139  1.0000
  C   C66       1.0  0.50423  0.76243  0.28343  1.0000
  C   C67       1.0  0.55079  0.04617  0.75092  1.0000
  C   C68       1.0  0.95328  0.50618  0.73787  1.0000
  C   C69       1.0  0.49419  0.44900  0.74836  1.0000
  C   C70       1.0  0.45151  0.95454  0.75403  1.0000
  C   C71       1.0  0.04490  0.49898  0.74131  1.0000
  C   C72       1.0  0.50020  0.54736  0.73706  1.0000
  C   C73       1.0  0.50541  0.04992  0.75460  1.0000
  C   C74       1.0  0.94965  0.45711  0.73634  1.0000
  C   C75       1.0  0.54302  0.49486  0.74467  1.0000
  C   C76       1.0  0.49688  0.95079  0.75206  1.0000
  C   C77       1.0  0.04839  0.54798  0.74418  1.0000
  C   C78       1.0  0.45136  0.50150  0.74271  1.0000
  C   C79       1.0  0.45792  0.00407  0.75449  1.0000
  C   C80       1.0  0.99551  0.45561  0.73773  1.0000
  C   C81       1.0  0.54375  0.54173  0.73761  1.0000
  C   C82       1.0  0.54444  0.99663  0.74965  1.0000
  C   C83       1.0  0.00261  0.54954  0.74161  1.0000
  C   C84       1.0  0.45050  0.45442  0.74651  1.0000
  C   C85       1.0  0.90919  0.51514  0.73236  1.0000
  C   C86       1.0  0.50893  0.60035  0.72796  1.0000
  C   C87       1.0  0.50389  0.09851  0.76408  1.0000
  C   C88       1.0  0.09677  0.59803  0.75384  1.0000
  C   C89       1.0  0.40080  0.49917  0.74845  1.0000
  C   C90       1.0  0.90842  0.55492  0.81715  1.0000
  C   C91       1.0  0.55326  0.64243  0.78872  1.0000
  C   C92       1.0  0.86759  0.56426  0.81040  1.0000
  C   C93       1.0  0.56281  0.69259  0.77932  1.0000
  C   C94       1.0  0.82496  0.53256  0.72255  1.0000
  C   C95       1.0  0.52668  0.70242  0.71488  1.0000
  C   C96       1.0  0.82568  0.49323  0.63593  1.0000
  C   C97       1.0  0.48263  0.66099  0.65240  1.0000
  C   C98       1.0  0.86734  0.48530  0.64044  1.0000
  C   C99       1.0  0.47474  0.61135  0.65663  1.0000
  C   C100      1.0  0.53873  0.14059  0.85079  1.0000
  C   C101      1.0  0.13688  0.60496  0.84508  1.0000
  C   C102      1.0  0.39187  0.53251  0.84068  1.0000
  C   C103      1.0  0.53636  0.18552  0.86084  1.0000
  C   C104      1.0  0.18203  0.65197  0.85358  1.0000
  C   C105      1.0  0.34469  0.53028  0.84490  1.0000
  C   C106      1.0  0.49819  0.18973  0.78686  1.0000
  C   C107      1.0  0.18822  0.69450  0.77432  1.0000
  C   C108      1.0  0.30382  0.49378  0.75877  1.0000
  C   C109      1.0  0.46269  0.14775  0.70086  1.0000
  C   C110      1.0  0.14792  0.68837  0.68494  1.0000
  C   C111      1.0  0.31173  0.45925  0.66846  1.0000
  C   C112      1.0  0.46589  0.10322  0.68896  1.0000
  C   C113      1.0  0.10332  0.64078  0.67386  1.0000
  C   C114      1.0  0.35949  0.46224  0.66320  1.0000
  C   C115      1.0  0.76223  0.26081  0.76672  1.0000
  C   C116      1.0  0.73924  0.50388  0.76881  1.0000
  C   C117      1.0  0.49796  0.23808  0.79762  1.0000
  C   C118      1.0  0.23696  0.74256  0.78425  1.0000
  C   C119      1.0  0.25598  0.49512  0.76537  1.0000
  C   C120      1.0  0.50086  0.76100  0.77417  1.0000
  N   N1        1.0  0.75641  0.21451  0.23550  1.0000
  N   N2        1.0  0.78478  0.53776  0.20250  1.0000
  N   N3        1.0  0.46976  0.24820  0.22986  1.0000
  N   N4        1.0  0.24438  0.78472  0.25470  1.0000
  N   N5        1.0  0.21822  0.46221  0.22322  1.0000
  N   N6        1.0  0.52187  0.74508  0.17832  1.0000
  N   N7        1.0  0.75637  0.21681  0.72456  1.0000
  N   N8        1.0  0.78275  0.54053  0.72000  1.0000
  N   N9        1.0  0.46172  0.24433  0.74813  1.0000
  N   N10       1.0  0.24418  0.78662  0.74384  1.0000
  N   N11       1.0  0.21299  0.46002  0.71183  1.0000
  N   N12       1.0  0.53521  0.75269  0.71078  1.0000
  C   C121      1.0  0.62563  0.14770  0.64921  1.0000
  C   C122      1.0  0.60712  0.09988  0.71518  1.0000
  C  Sn1       1.0  0.63975  0.08996  0.79756  1.0000
  C  Sn2       1.0  0.69186  0.12872  0.81405  1.0000
  C   C123      1.0  0.70999  0.17645  0.74770  1.0000
  C   C124      1.0  0.67701  0.18596  0.66546  1.0000
  H   H73       1.0  0.60010  0.15506  0.58564  1.0000
  O  Te1       1.0  0.62064  0.04197  0.86269  1.0000
  O  Te2       1.0  0.72531  0.11985  0.89584  1.0000
  H   H74       1.0  0.69134  0.22300  0.61448  1.0000
  Mg  Mg1       1.0  0.68119  0.04830  0.96348  1.0000
  C   C125      1.0  0.37522  0.85217  0.65626  1.0000
  C   C126      1.0  0.39489  0.90063  0.72386  1.0000
  C  Sn3       1.0  0.36293  0.91252  0.81145  1.0000
  C  Sn4       1.0  0.31032  0.87511  0.83157  1.0000
  C   C127      1.0  0.29102  0.82672  0.76355  1.0000
  C   C128      1.0  0.32334  0.81524  0.67609  1.0000
  H   H75       1.0  0.40023  0.84327  0.58865  1.0000
  O  Te3       1.0  0.38320  0.96114  0.87814  1.0000
  O  Te4       1.0  0.27752  0.88596  0.91859  1.0000
  H   H76       1.0  0.30811  0.77770  0.62384  1.0000
  Mg  Mg2       1.0  0.32318  0.95765  0.98647  1.0000
  C   C129      1.0  0.86546  0.32109  0.15667  1.0000
  C   C130      1.0  0.82209  0.30662  0.24836  1.0000
  C  Sn5       1.0  0.81766  0.34333  0.33623  1.0000
  C  Sn6       1.0  0.85744  0.39547  0.33195  1.0000
  C   C131      1.0  0.90066  0.40957  0.23977  1.0000
  C   C132      1.0  0.90471  0.37251  0.15234  1.0000
  H   H77       1.0  0.86859  0.29243  0.08896  1.0000
  O  Te5       1.0  0.77407  0.32821  0.42725  1.0000
  O  Te6       1.0  0.85399  0.43296  0.41859  1.0000
  H   H78       1.0  0.93829  0.38373  0.08129  1.0000
  Mg  Mg3       1.0  0.78706  0.39341  0.52482  1.0000
  C   C133      1.0  0.43652  0.34313  0.84181  1.0000
  C   C134      1.0  0.47713  0.38733  0.77856  1.0000
  C  Sn7       1.0  0.51392  0.38399  0.68758  1.0000
  C  Sn8       1.0  0.50987  0.33544  0.65956  1.0000
  C   C135      1.0  0.46908  0.29144  0.72328  1.0000
  C   C136      1.0  0.43249  0.29522  0.81419  1.0000
  H   H79       1.0  0.40820  0.34605  0.91208  1.0000
  O  Te7       1.0  0.55425  0.42854  0.62532  1.0000
  O  Te8       1.0  0.54609  0.33099  0.56901  1.0000
  H   H80       1.0  0.40103  0.26099  0.86306  1.0000
  Mg  Mg4       1.0  0.59408  0.40276  0.50957  1.0000
  C   C137      1.0  0.85472  0.47542  0.12940  1.0000
  C   C138      1.0  0.90157  0.50531  0.20000  1.0000
  C  Sn9       1.0  0.91047  0.54873  0.28385  1.0000
  C  Sn10      1.0  0.87167  0.56238  0.29710  1.0000
  C   C139      1.0  0.82492  0.53220  0.22614  1.0000
  C   C140      1.0  0.81643  0.48884  0.14246  1.0000
  H   H81       1.0  0.84813  0.44185  0.06473  1.0000
  O  Te9       1.0  0.95750  0.57818  0.35361  1.0000
  O  Te10      1.0  0.87954  0.60557  0.38027  1.0000
  H   H82       1.0  0.78014  0.46568  0.08790  1.0000
  Mg  Mg5       1.0  0.95001  0.63354  0.45460  1.0000
  C   C141      1.0  0.82101  0.36613  0.84566  1.0000
  C   C142      1.0  0.80878  0.32049  0.76881  1.0000
  C  Sn11      1.0  0.84530  0.31767  0.67519  1.0000
  C  Sn12      1.0  0.89496  0.36141  0.65846  1.0000
  C   C143      1.0  0.90683  0.40688  0.73591  1.0000
  C   C144      1.0  0.86999  0.40928  0.82926  1.0000
  H   H83       1.0  0.79252  0.36799  0.91796  1.0000
  O  Te11      1.0  0.83243  0.27178  0.59919  1.0000
  O  Te12      1.0  0.93220  0.35965  0.56565  1.0000
  H   H84       1.0  0.87949  0.44461  0.88883  1.0000
  Mg  Mg6       1.0  0.89629  0.28840  0.48560  1.0000
  C   C145      1.0  0.54249  0.86377  0.66348  1.0000
  C   C146      1.0  0.51386  0.82109  0.75380  1.0000
  C  Sn13      1.0  0.47392  0.81799  0.84498  1.0000
  C  Sn14      1.0  0.46253  0.85843  0.84547  1.0000
  C   C147      1.0  0.49138  0.90094  0.75462  1.0000
  C   C148      1.0  0.53127  0.90366  0.66385  1.0000
  H   H85       1.0  0.57334  0.86586  0.59318  1.0000
  O  Te13      1.0  0.44571  0.77508  0.93458  1.0000
  O  Te14      1.0  0.42282  0.85631  0.93548  1.0000
  H   H86       1.0  0.55341  0.93669  0.59385  1.0000
  Mg  Mg7       1.0  0.40250  0.78523  0.03805  1.0000
  C   C149      1.0  0.14742  0.52524  0.63939  1.0000
  C   C150      1.0  0.09909  0.49667  0.70800  1.0000
  C  Sn15      1.0  0.08754  0.45344  0.79107  1.0000
  C  Sn16      1.0  0.12517  0.43865  0.80557  1.0000
  C   C151      1.0  0.17342  0.46751  0.73659  1.0000
  C   C152      1.0  0.18455  0.51069  0.65368  1.0000
  H   H87       1.0  0.15605  0.55867  0.57531  1.0000
  O  Te15      1.0  0.03906  0.42531  0.85884  1.0000
  O  Te16      1.0  0.11466  0.39562  0.88800  1.0000
  H   H88       1.0  0.22199  0.53283  0.60066  1.0000
  Mg  Mg8       1.0  0.04303  0.36966  0.95951  1.0000
  C   C153      1.0  0.65439  0.16735  0.13995  1.0000
  C   C154      1.0  0.69641  0.17538  0.22270  1.0000
  C  Sn17      1.0  0.69211  0.13737  0.31782  1.0000
  C  Sn18      1.0  0.64483  0.09048  0.33005  1.0000
  C   C155      1.0  0.60303  0.08281  0.24670  1.0000
  C   C156      1.0  0.60775  0.12111  0.15190  1.0000
  H   H89       1.0  0.65804  0.19697  0.06653  1.0000
  O  Te17      1.0  0.73447  0.14604  0.39974  1.0000
  O  Te18      1.0  0.63949  0.05184  0.42422  1.0000
  H   H90       1.0  0.57522  0.11486  0.08776  1.0000
  Mg  Mg9       1.0  0.70820  0.08175  0.51299  1.0000
  C   C157      1.0  0.65078  0.54261  0.66231  1.0000
  C   C158      1.0  0.60350  0.50595  0.72343  1.0000
  C  Sn19      1.0  0.60056  0.46814  0.81684  1.0000
  C  Sn20      1.0  0.64586  0.46710  0.84950  1.0000
  C   C159      1.0  0.69298  0.50397  0.78788  1.0000
  C   C160      1.0  0.69549  0.54163  0.69451  1.0000
  H   H91       1.0  0.65273  0.57177  0.59014  1.0000
  O  Te19      1.0  0.55301  0.43179  0.87692  1.0000
  O  Te20      1.0  0.64402  0.42975  0.94255  1.0000
  H   H92       1.0  0.73210  0.57003  0.64729  1.0000
  Mg  Mg10      1.0  0.57019  0.38850  0.99752  1.0000
  C   C161      1.0  0.39218  0.54823  0.33947  1.0000
  C   C162      1.0  0.40514  0.51236  0.28278  1.0000
  C  Sn21      1.0  0.36930  0.46915  0.20352  1.0000
  C  Sn22      1.0  0.31961  0.46183  0.18072  1.0000
  C   C163      1.0  0.30704  0.49796  0.23779  1.0000
  C   C164      1.0  0.34319  0.54106  0.31698  1.0000
  H   H93       1.0  0.42016  0.58159  0.40068  1.0000
  O  Te21      1.0  0.38287  0.43368  0.14769  1.0000
  O  Te22      1.0  0.28306  0.41900  0.10186  1.0000
  H   H94       1.0  0.33315  0.56884  0.36078  1.0000
  Mg  Mg11      1.0  0.31978  0.38143  0.04757  1.0000
  C   C165      1.0  0.46037  0.84920  0.36941  1.0000
  C   C166      1.0  0.48936  0.89213  0.28025  1.0000
  C  Sn23      1.0  0.52583  0.89302  0.17824  1.0000
  C  Sn24      1.0  0.53333  0.85009  0.16549  1.0000
  C   C167      1.0  0.50411  0.80731  0.25512  1.0000
  C   C168      1.0  0.46773  0.80683  0.35686  1.0000
  H   H95       1.0  0.43220  0.84881  0.44808  1.0000
  O  Te23      1.0  0.55448  0.93623  0.09006  1.0000
  O  Te24      1.0  0.56951  0.84995  0.06441  1.0000
  H   H96       1.0  0.44526  0.77358  0.42581  1.0000
  Mg  Mg12      1.0  0.59200  0.92245  0.96874  1.0000
