data_image0
_chemical_formula_structural       H72C120N12SnCSn2CSnTe4Mg2SnCSn2CSnTe4Mg2SnCSn2CSnTe4Mg2SnCSn2CSnTe4Mg2SnCSn2CSnTe4Mg2SnCSn2CSnTe4Mg2SnCSn2CSnTe4Mg2SnCSn2CSnTe4Mg2SnCSn2CSnTe4Mg2SnCSn2CSnTe4Mg2SnCSn2CSnTe4Mg2SnCSn2CSnTe4Mg2
_chemical_formula_sum              "H72 C144 N12 Sn48 Te48 Mg24"
_cell_length_a       30.0867
_cell_length_b       30.0711
_cell_length_c       8.98068
_cell_angle_alpha    91.5843
_cell_angle_beta     88.1734
_cell_angle_gamma    120.056

_symmetry_space_group_name_H-M    'P1'
_space_group_IT_number       1

loop_
  _space_group_symop_operation_xyz
  'x, y, z'

loop_
  _atom_site_type_symbol
  _atom_site_label
  _atom_site_symmetry_multiplicity
  _atom_site_fract_x
  _atom_site_fract_y
  _atom_site_fract_z
  _atom_site_occupancy
  H   H1        1.0  0.42292  0.00660  0.25615  1.0000
  H   H2        1.0  0.99453  0.41529  0.23773  1.0000
  H   H3        1.0  0.58610  0.57988  0.27335  1.0000
  H   H4        1.0  0.57810  0.99190  0.24204  1.0000
  H   H5        1.0  0.00663  0.58387  0.24553  1.0000
  H   H6        1.0  0.41796  0.42179  0.26282  1.0000
  H   H7        1.0  0.94201  0.57810  0.37806  1.0000
  H   H8        1.0  0.42770  0.36627  0.41343  1.0000
  H   H9        1.0  0.36766  0.94545  0.40713  1.0000
  H   H10       1.0  0.87012  0.59489  0.35429  1.0000
  H   H11       1.0  0.41398  0.27807  0.39306  1.0000
  H   H12       1.0  0.27795  0.87386  0.40238  1.0000
  H   H13       1.0  0.79420  0.46316  0.06338  1.0000
  H   H14       1.0  0.54162  0.33020  0.08366  1.0000
  H   H15       1.0  0.32352  0.78903  0.10427  1.0000
  H   H16       1.0  0.86750  0.44803  0.08268  1.0000
  H   H17       1.0  0.55405  0.41783  0.09968  1.0000
  H   H18       1.0  0.41326  0.86139  0.10556  1.0000
  H   H19       1.0  0.86231  0.43066  0.39117  1.0000
  H   H20       1.0  0.57372  0.43643  0.41639  1.0000
  H   H21       1.0  0.78308  0.34684  0.41023  1.0000
  H   H22       1.0  0.65798  0.44095  0.41690  1.0000
  H   H23       1.0  0.84935  0.27980  0.11386  1.0000
  H   H24       1.0  0.71881  0.56652  0.11001  1.0000
  H   H25       1.0  0.92879  0.36485  0.09228  1.0000
  H   H26       1.0  0.63399  0.56159  0.10986  1.0000
  H   H27       1.0  0.73009  0.26157  0.32676  1.0000
  H   H28       1.0  0.74125  0.47252  0.32951  1.0000
  H   H29       1.0  0.53543  0.27090  0.35265  1.0000
  H   H30       1.0  0.27013  0.73792  0.33770  1.0000
  H   H31       1.0  0.26498  0.53650  0.30377  1.0000
  H   H32       1.0  0.48758  0.74072  0.38683  1.0000
  H   H33       1.0  0.42338  0.00708  0.75583  1.0000
  H   H34       1.0  0.99268  0.41811  0.73632  1.0000
  H   H35       1.0  0.58112  0.57647  0.73308  1.0000
  H   H36       1.0  0.57899  0.99360  0.74725  1.0000
  H   H37       1.0  0.00558  0.58711  0.74348  1.0000
  H   H38       1.0  0.41313  0.41951  0.74814  1.0000
  H   H39       1.0  0.63569  0.05731  0.88876  1.0000
  H   H40       1.0  0.36740  0.94643  0.90301  1.0000
  H   H41       1.0  0.05377  0.42466  0.88296  1.0000
  H   H42       1.0  0.72492  0.12975  0.87002  1.0000
  H   H43       1.0  0.27757  0.87534  0.89265  1.0000
  H   H44       1.0  0.12501  0.40599  0.86202  1.0000
  H   H45       1.0  0.67517  0.20900  0.58795  1.0000
  H   H46       1.0  0.32450  0.79092  0.59744  1.0000
  H   H47       1.0  0.20863  0.53555  0.57548  1.0000
  H   H48       1.0  0.58677  0.13556  0.60085  1.0000
  H   H49       1.0  0.41391  0.86239  0.60455  1.0000
  H   H50       1.0  0.13673  0.55309  0.59192  1.0000
  H   H51       1.0  0.85981  0.43295  0.88252  1.0000
  H   H52       1.0  0.56832  0.43493  0.90282  1.0000
  H   H53       1.0  0.43317  0.86433  0.90764  1.0000
  H   H54       1.0  0.13238  0.57264  0.90792  1.0000
  H   H55       1.0  0.78083  0.34809  0.89889  1.0000
  H   H56       1.0  0.65269  0.43980  0.91296  1.0000
  H   H57       1.0  0.43643  0.78414  0.91984  1.0000
  H   H58       1.0  0.21272  0.65639  0.92456  1.0000
  H   H59       1.0  0.85004  0.28280  0.60800  1.0000
  H   H60       1.0  0.71712  0.56708  0.61250  1.0000
  H   H61       1.0  0.56657  0.84670  0.61666  1.0000
  H   H62       1.0  0.15287  0.72076  0.62069  1.0000
  H   H63       1.0  0.92917  0.36863  0.58952  1.0000
  H   H64       1.0  0.63190  0.56069  0.59785  1.0000
  H   H65       1.0  0.56260  0.92674  0.60281  1.0000
  H   H66       1.0  0.07367  0.63597  0.59813  1.0000
  H   H67       1.0  0.72968  0.26349  0.81625  1.0000
  H   H68       1.0  0.73669  0.46961  0.81870  1.0000
  H   H69       1.0  0.53150  0.27010  0.85161  1.0000
  H   H70       1.0  0.26864  0.73929  0.83050  1.0000
  H   H71       1.0  0.25857  0.52917  0.82278  1.0000
  H   H72       1.0  0.46843  0.73056  0.83747  1.0000
  C   C1        1.0  0.55026  0.04489  0.24886  1.0000
  C   C2        1.0  0.95476  0.50309  0.23870  1.0000
  C   C3        1.0  0.49906  0.45174  0.26470  1.0000
  C   C4        1.0  0.45083  0.95374  0.25281  1.0000
  C   C5        1.0  0.04666  0.49626  0.24114  1.0000
  C   C6        1.0  0.50519  0.54973  0.26363  1.0000
  C   C7        1.0  0.50508  0.04890  0.25275  1.0000
  C   C8        1.0  0.95121  0.45406  0.23876  1.0000
  C   C9        1.0  0.54776  0.49759  0.26787  1.0000
  C   C10       1.0  0.49603  0.94981  0.24824  1.0000
  C   C11       1.0  0.04999  0.54526  0.24567  1.0000
  C   C12       1.0  0.45630  0.50408  0.26130  1.0000
  C   C13       1.0  0.45733  0.00333  0.25347  1.0000
  C   C14       1.0  0.99726  0.45275  0.23885  1.0000
  C   C15       1.0  0.54890  0.54481  0.27044  1.0000
  C   C16       1.0  0.54377  0.99533  0.24557  1.0000
  C   C17       1.0  0.00401  0.54647  0.24330  1.0000
  C   C18       1.0  0.45519  0.45684  0.26399  1.0000
  C   C19       1.0  0.91070  0.51198  0.22941  1.0000
  C   C20       1.0  0.49160  0.39907  0.25559  1.0000
  C   C21       1.0  0.39759  0.90951  0.25397  1.0000
  C   C22       1.0  0.90236  0.40411  0.24434  1.0000
  C   C23       1.0  0.59786  0.49936  0.26693  1.0000
  C   C24       1.0  0.91061  0.55368  0.30475  1.0000
  C   C25       1.0  0.45181  0.35847  0.33679  1.0000
  C   C26       1.0  0.35820  0.91192  0.33690  1.0000
  C   C27       1.0  0.87002  0.56315  0.29299  1.0000
  C   C28       1.0  0.44401  0.30872  0.32677  1.0000
  C   C29       1.0  0.30757  0.87163  0.33556  1.0000
  C   C30       1.0  0.82684  0.52969  0.20946  1.0000
  C   C31       1.0  0.47711  0.29818  0.23842  1.0000
  C   C32       1.0  0.29487  0.82627  0.25466  1.0000
  C   C33       1.0  0.82669  0.48826  0.13247  1.0000
  C   C34       1.0  0.51667  0.33825  0.15572  1.0000
  C   C35       1.0  0.33375  0.82347  0.17097  1.0000
  C   C36       1.0  0.86815  0.48022  0.14187  1.0000
  C   C37       1.0  0.52316  0.38741  0.16370  1.0000
  C   C38       1.0  0.38387  0.86448  0.17024  1.0000
  C   C39       1.0  0.86001  0.39776  0.33182  1.0000
  C   C40       1.0  0.60560  0.46531  0.35133  1.0000
  C   C41       1.0  0.81510  0.35055  0.34092  1.0000
  C   C42       1.0  0.65279  0.46757  0.34986  1.0000
  C   C43       1.0  0.81085  0.30712  0.26473  1.0000
  C   C44       1.0  0.69436  0.50440  0.26443  1.0000
  C   C45       1.0  0.85281  0.31292  0.17610  1.0000
  C   C46       1.0  0.68719  0.53885  0.17946  1.0000
  C   C47       1.0  0.89741  0.36062  0.16544  1.0000
  C   C48       1.0  0.63966  0.53614  0.18066  1.0000
  C   C49       1.0  0.76251  0.25861  0.27720  1.0000
  C   C50       1.0  0.74263  0.50410  0.26637  1.0000
  C   C51       1.0  0.50347  0.24019  0.28947  1.0000
  C   C52       1.0  0.23793  0.74078  0.29330  1.0000
  C   C53       1.0  0.26208  0.50040  0.26139  1.0000
  C   C54       1.0  0.50423  0.76243  0.28343  1.0000
  C   C55       1.0  0.55079  0.04617  0.75092  1.0000
  C   C56       1.0  0.95328  0.50618  0.73787  1.0000
  C   C57       1.0  0.49419  0.44900  0.74836  1.0000
  C   C58       1.0  0.45151  0.95454  0.75403  1.0000
  C   C59       1.0  0.04490  0.49898  0.74131  1.0000
  C   C60       1.0  0.50020  0.54736  0.73706  1.0000
  C   C61       1.0  0.50541  0.04992  0.75460  1.0000
  C   C62       1.0  0.94965  0.45711  0.73634  1.0000
  C   C63       1.0  0.54302  0.49486  0.74467  1.0000
  C   C64       1.0  0.49688  0.95079  0.75206  1.0000
  C   C65       1.0  0.04839  0.54798  0.74418  1.0000
  C   C66       1.0  0.45136  0.50150  0.74271  1.0000
  C   C67       1.0  0.45792  0.00407  0.75449  1.0000
  C   C68       1.0  0.99551  0.45561  0.73773  1.0000
  C   C69       1.0  0.54375  0.54173  0.73761  1.0000
  C   C70       1.0  0.54444  0.99663  0.74965  1.0000
  C   C71       1.0  0.00261  0.54954  0.74161  1.0000
  C   C72       1.0  0.45050  0.45442  0.74651  1.0000
  C   C73       1.0  0.60400  0.09039  0.74408  1.0000
  C   C74       1.0  0.39805  0.91061  0.75196  1.0000
  C   C75       1.0  0.08914  0.48998  0.73615  1.0000
  C   C76       1.0  0.90102  0.40700  0.73900  1.0000
  C   C77       1.0  0.59359  0.49757  0.75151  1.0000
  C   C78       1.0  0.49794  0.90204  0.75680  1.0000
  C   C79       1.0  0.09677  0.59803  0.75384  1.0000
  C   C80       1.0  0.64423  0.08965  0.81847  1.0000
  C   C81       1.0  0.35824  0.91308  0.83229  1.0000
  C   C82       1.0  0.08692  0.44839  0.81174  1.0000
  C   C83       1.0  0.69456  0.13045  0.80933  1.0000
  C   C84       1.0  0.30749  0.87305  0.82772  1.0000
  C   C85       1.0  0.12700  0.43778  0.80147  1.0000
  C   C86       1.0  0.70613  0.17478  0.73003  1.0000
  C   C87       1.0  0.29489  0.82781  0.74625  1.0000
  C   C88       1.0  0.17195  0.46987  0.71923  1.0000
  C   C89       1.0  0.66635  0.17580  0.65463  1.0000
  C   C90       1.0  0.33422  0.82500  0.66521  1.0000
  C   C91       1.0  0.17470  0.51153  0.64353  1.0000
  C   C92       1.0  0.61673  0.13408  0.66041  1.0000
  C   C93       1.0  0.38441  0.86578  0.66744  1.0000
  C   C94       1.0  0.13381  0.52082  0.65133  1.0000
  C   C95       1.0  0.85803  0.40018  0.82383  1.0000
  C   C96       1.0  0.60083  0.46399  0.84007  1.0000
  C   C97       1.0  0.46256  0.86074  0.84469  1.0000
  C   C98       1.0  0.13688  0.60496  0.84508  1.0000
  C   C99       1.0  0.81351  0.35259  0.83132  1.0000
  C   C100      1.0  0.64821  0.46663  0.84477  1.0000
  C   C101      1.0  0.46417  0.81548  0.85028  1.0000
  C   C102      1.0  0.18203  0.65197  0.85358  1.0000
  C   C103      1.0  0.81027  0.30953  0.75548  1.0000
  C   C104      1.0  0.69085  0.50404  0.76382  1.0000
  C   C105      1.0  0.50182  0.80986  0.76890  1.0000
  C   C106      1.0  0.18822  0.69450  0.77432  1.0000
  C   C107      1.0  0.85293  0.31581  0.66962  1.0000
  C   C108      1.0  0.68449  0.53876  0.67769  1.0000
  C   C109      1.0  0.53797  0.85119  0.68215  1.0000
  C   C110      1.0  0.14792  0.68837  0.68494  1.0000
  C   C111      1.0  0.89719  0.36381  0.66085  1.0000
  C   C112      1.0  0.63666  0.53517  0.67094  1.0000
  C   C113      1.0  0.53578  0.89618  0.67587  1.0000
  C   C114      1.0  0.10332  0.64078  0.67386  1.0000
  C   C115      1.0  0.76223  0.26081  0.76672  1.0000
  C   C116      1.0  0.73924  0.50388  0.76881  1.0000
  C   C117      1.0  0.49796  0.23808  0.79762  1.0000
  C   C118      1.0  0.23696  0.74256  0.78425  1.0000
  C   C119      1.0  0.25598  0.49512  0.76537  1.0000
  C   C120      1.0  0.50086  0.76100  0.77417  1.0000
  N   N1        1.0  0.75641  0.21451  0.23550  1.0000
  N   N2        1.0  0.78478  0.53776  0.20250  1.0000
  N   N3        1.0  0.46976  0.24820  0.22986  1.0000
  N   N4        1.0  0.24438  0.78472  0.25470  1.0000
  N   N5        1.0  0.21822  0.46221  0.22322  1.0000
  N   N6        1.0  0.52187  0.74508  0.17832  1.0000
  N   N7        1.0  0.75637  0.21681  0.72456  1.0000
  N   N8        1.0  0.78275  0.54053  0.72000  1.0000
  N   N9        1.0  0.46172  0.24433  0.74813  1.0000
  N   N10       1.0  0.24418  0.78662  0.74384  1.0000
  N   N11       1.0  0.21299  0.46002  0.71183  1.0000
  N   N12       1.0  0.53521  0.75269  0.71078  1.0000
  C  Sn1       1.0  0.54711  0.86596  0.18980  1.0000
  C   C121      1.0  0.51779  0.82363  0.28081  1.0000
  C  Sn2       1.0  0.47310  0.81725  0.35240  1.0000
  C  Sn3       1.0  0.45736  0.85393  0.33254  1.0000
  C   C122      1.0  0.48666  0.89622  0.24156  1.0000
  C  Sn4       1.0  0.53137  0.90263  0.16994  1.0000
  O  Te1       1.0  0.59165  0.87157  0.11931  1.0000
  O  Te2       1.0  0.44444  0.77464  0.44288  1.0000
  O  Te3       1.0  0.41279  0.84829  0.40312  1.0000
  O  Te4       1.0  0.56002  0.94522  0.07949  1.0000
  Mg  Mg1       1.0  0.38666  0.78384  0.51515  1.0000
  Mg  Mg2       1.0  0.61779  0.93604  0.00711  1.0000
  C  Sn5       1.0  0.37850  0.52464  0.88279  1.0000
  C   C123      1.0  0.39374  0.49520  0.79555  1.0000
  C  Sn6       1.0  0.36439  0.46612  0.67503  1.0000
  C  Sn7       1.0  0.31888  0.46649  0.64091  1.0000
  C   C124      1.0  0.30366  0.49592  0.72809  1.0000
  C  Sn8       1.0  0.33299  0.52501  0.84867  1.0000
  O  Te5       1.0  0.41562  0.54877  0.00274  1.0000
  O  Te6       1.0  0.38040  0.43697  0.58947  1.0000
  O  Te7       1.0  0.28894  0.43767  0.52084  1.0000
  O  Te8       1.0  0.31701  0.55415  0.93417  1.0000
  Mg  Mg3       1.0  0.32669  0.40415  0.43738  1.0000
  Mg  Mg4       1.0  0.37789  0.58235  0.08624  1.0000
  C  Sn9       1.0  0.11789  0.64786  0.14639  1.0000
  C   C125      1.0  0.10611  0.60129  0.21059  1.0000
  C  Sn10      1.0  0.13474  0.60043  0.32876  1.0000
  C  Sn11      1.0  0.17600  0.64709  0.38399  1.0000
  C   C126      1.0  0.18776  0.69362  0.31982  1.0000
  C  Sn12      1.0  0.15915  0.69451  0.20162  1.0000
  O  Te9       1.0  0.08875  0.64781  0.02836  1.0000
  O  Te10      1.0  0.12224  0.55341  0.39109  1.0000
  O  Te11      1.0  0.20515  0.64711  0.50211  1.0000
  O  Te12      1.0  0.17162  0.74150  0.13932  1.0000
  Mg  Mg5       1.0  0.17323  0.57336  0.54998  1.0000
  Mg  Mg6       1.0  0.11346  0.72625  0.98048  1.0000
  C  Sn13      1.0  0.52436  0.34851  0.69357  1.0000
  C   C127      1.0  0.48598  0.30571  0.76860  1.0000
  C  Sn14      1.0  0.44271  0.30610  0.82815  1.0000
  C  Sn15      1.0  0.43768  0.35016  0.81230  1.0000
  C   C128      1.0  0.47604  0.39292  0.73730  1.0000
  C  Sn16      1.0  0.51933  0.39257  0.67773  1.0000
  O  Te13      1.0  0.56729  0.34727  0.63493  1.0000
  O  Te14      1.0  0.40486  0.26287  0.90273  1.0000
  O  Te15      1.0  0.39471  0.35137  0.87103  1.0000
  O  Te16      1.0  0.55716  0.43576  0.60316  1.0000
  Mg  Mg7       1.0  0.35350  0.28307  0.96314  1.0000
  Mg  Mg8       1.0  0.60853  0.41560  0.54265  1.0000
  C  Sn17      1.0  0.89408  0.54983  0.85635  1.0000
  C   C129      1.0  0.90123  0.51310  0.77750  1.0000
  C  Sn18      1.0  0.87202  0.48831  0.65238  1.0000
  C  Sn19      1.0  0.83491  0.50050  0.60501  1.0000
  C   C130      1.0  0.82778  0.53722  0.68382  1.0000
  C  Sn20      1.0  0.85697  0.56203  0.80899  1.0000
  O  Te17      1.0  0.92372  0.57414  0.98112  1.0000
  O  Te18      1.0  0.87985  0.45170  0.57538  1.0000
  O  Te19      1.0  0.80526  0.47616  0.48014  1.0000
  O  Te20      1.0  0.84916  0.59862  0.88594  1.0000
  Mg  Mg9       1.0  0.83007  0.42906  0.41213  1.0000
  Mg  Mg10      1.0  0.90612  0.61665  0.04916  1.0000
  C  Sn21      1.0  0.63057  0.13619  0.11564  1.0000
  C   C131      1.0  0.61046  0.09115  0.19796  1.0000
  C  Sn22      1.0  0.63794  0.08776  0.31534  1.0000
  C  Sn23      1.0  0.68654  0.13029  0.35126  1.0000
  C   C132      1.0  0.70663  0.17530  0.26898  1.0000
  C  Sn24      1.0  0.67917  0.17872  0.15155  1.0000
  O  Te21      1.0  0.59524  0.14337  0.99876  1.0000
  O  Te22      1.0  0.61705  0.04232  0.39601  1.0000
  O  Te23      1.0  0.71469  0.12773  0.46824  1.0000
  O  Te24      1.0  0.70004  0.22412  0.07093  1.0000
  Mg  Mg11      1.0  0.67003  0.05757  0.54534  1.0000
  Mg  Mg12      1.0  0.63990  0.21359  0.92163  1.0000
  C  Sn25      1.0  0.53427  0.65122  0.36729  1.0000
  C   C133      1.0  0.50829  0.60654  0.28045  1.0000
  C  Sn26      1.0  0.49198  0.60863  0.13824  1.0000
  C  Sn27      1.0  0.50186  0.65638  0.08159  1.0000
  C   C134      1.0  0.52783  0.70102  0.16839  1.0000
  C  Sn28      1.0  0.54416  0.69896  0.31063  1.0000
  O  Te25      1.0  0.55023  0.64823  0.50914  1.0000
  O  Te26      1.0  0.46606  0.56345  0.05353  1.0000
  O  Te27      1.0  0.47869  0.66399  0.93961  1.0000
  O  Te28      1.0  0.57007  0.74411  0.39531  1.0000
  Mg  Mg13      1.0  0.44481  0.59190  0.86673  1.0000
  Mg  Mg14      1.0  0.58417  0.72037  0.58208  1.0000
  C  Sn29      1.0  0.11383  0.42697  0.27727  1.0000
  C   C135      1.0  0.16060  0.45468  0.19984  1.0000
  C  Sn30      1.0  0.17617  0.50378  0.14759  1.0000
  C  Sn31      1.0  0.14435  0.52567  0.17334  1.0000
  C   C136      1.0  0.09762  0.49797  0.25075  1.0000
  C  Sn32      1.0  0.08201  0.44885  0.30302  1.0000
  O  Te29      1.0  0.09904  0.37795  0.32850  1.0000
  O  Te30      1.0  0.22309  0.53074  0.07042  1.0000
  O  Te31      1.0  0.15919  0.57473  0.12203  1.0000
  O  Te32      1.0  0.03513  0.42191  0.38017  1.0000
  Mg  Mg15      1.0  0.22649  0.59627  0.02273  1.0000
  Mg  Mg16      1.0  0.03171  0.35638  0.42796  1.0000
  C  Sn33      1.0  0.53088  0.14429  0.39582  1.0000
  C   C137      1.0  0.50097  0.10097  0.30727  1.0000
  C  Sn34      1.0  0.47319  0.10383  0.18985  1.0000
  C  Sn35      1.0  0.47537  0.15098  0.16025  1.0000
  C   C138      1.0  0.50526  0.19426  0.24875  1.0000
  C  Sn36      1.0  0.53306  0.19143  0.36622  1.0000
  O  Te33      1.0  0.55834  0.14055  0.51262  1.0000
  O  Te34      1.0  0.44355  0.06000  0.10290  1.0000
  O  Te35      1.0  0.44787  0.15468  0.04334  1.0000
  O  Te36      1.0  0.56269  0.23523  0.45312  1.0000
  Mg  Mg17      1.0  0.40583  0.08906  0.95635  1.0000
  Mg  Mg18      1.0  0.59326  0.21088  0.59964  1.0000
  C  Sn37      1.0  0.46972  0.64687  0.68672  1.0000
  C   C139      1.0  0.51090  0.69212  0.74278  1.0000
  C  Sn38      1.0  0.55597  0.69335  0.78306  1.0000
  C  Sn39      1.0  0.55998  0.64843  0.76689  1.0000
  C   C140      1.0  0.51882  0.60322  0.71084  1.0000
  C  Sn40      1.0  0.47373  0.60195  0.67055  1.0000
  O  Te37      1.0  0.42503  0.64652  0.64716  1.0000
  O  Te38      1.0  0.59662  0.73903  0.83889  1.0000
  O  Te39      1.0  0.60472  0.64881  0.80651  1.0000
  O  Te40      1.0  0.43310  0.55631  0.61473  1.0000
  Mg  Mg19      1.0  0.64956  0.72028  0.87729  1.0000
  Mg  Mg20      1.0  0.38015  0.57502  0.57623  1.0000
  C  Sn41      1.0  0.45078  0.13084  0.72695  1.0000
  C   C141      1.0  0.48258  0.17579  0.80692  1.0000
  C  Sn42      1.0  0.52996  0.18497  0.85713  1.0000
  C  Sn43      1.0  0.54590  0.14848  0.82671  1.0000
  C   C142      1.0  0.51412  0.10356  0.74677  1.0000
  C  Sn44      1.0  0.46673  0.09434  0.69653  1.0000
  O  Te41      1.0  0.40358  0.12246  0.67783  1.0000
  O  Te42      1.0  0.56108  0.23019  0.93690  1.0000
  O  Te43      1.0  0.59315  0.15690  0.87591  1.0000
  O  Te44      1.0  0.43562  0.04917  0.61678  1.0000
  Mg  Mg21      1.0  0.62200  0.22424  0.98018  1.0000
  Mg  Mg22      1.0  0.37471  0.05508  0.57338  1.0000
  C  Sn45      1.0  0.38682  0.53594  0.37441  1.0000
  C   C143      1.0  0.40033  0.50230  0.30360  1.0000
  C  Sn46      1.0  0.36927  0.46806  0.19341  1.0000
  C  Sn47      1.0  0.32377  0.46746  0.15308  1.0000
  C   C144      1.0  0.31029  0.50109  0.22386  1.0000
  C  Sn48      1.0  0.34132  0.53534  0.33409  1.0000
  O  Te45      1.0  0.41844  0.56984  0.48426  1.0000
  O  Te46      1.0  0.38356  0.43478  0.12423  1.0000
  O  Te47      1.0  0.29214  0.43352  0.04315  1.0000
  O  Te48      1.0  0.32705  0.56861  0.40323  1.0000
  Mg  Mg23      1.0  0.32074  0.40034  0.98107  1.0000
  Mg  Mg24      1.0  0.38268  0.60775  0.54634  1.0000
