data_image0
_chemical_formula_structural       H48C80N8SnCSn2CSnTe4Mg2SnCSn2CSnTe4Mg2SnCSn2CSnTe4Mg2SnCSn2CSnTe4Mg2SnCSn2CSnTe4Mg2SnCSn2CSnTe4Mg2SnCSn2CSnTe4Mg2SnCSn2CSnTe4Mg2
_chemical_formula_sum              "H48 C96 N8 Sn32 Te32 Mg16"
_cell_length_a       17.3948
_cell_length_b       24.6228
_cell_length_c       10.1228
_cell_angle_alpha    90.2043
_cell_angle_beta     103.859
_cell_angle_gamma    90.0139

_symmetry_space_group_name_H-M    'P1'
_space_group_IT_number       1

loop_
  _space_group_symop_operation_xyz
  'x, y, z'

loop_
  _atom_site_type_symbol
  _atom_site_label
  _atom_site_symmetry_multiplicity
  _atom_site_fract_x
  _atom_site_fract_y
  _atom_site_fract_z
  _atom_site_occupancy
  H   H1        1.0  0.35748  0.50363  0.22081  1.0000
  H   H2        1.0  0.64727  0.50115  0.29742  1.0000
  H   H3        1.0  0.85809  0.00194  0.22775  1.0000
  H   H4        1.0  0.14542  0.00281  0.27036  1.0000
  H   H5        1.0  0.52021  0.35683  0.39692  1.0000
  H   H6        1.0  0.44702  0.37056  0.05987  1.0000
  H   H7        1.0  0.03997  0.86242  0.40818  1.0000
  H   H8        1.0  0.96615  0.86246  0.08297  1.0000
  H   H9        1.0  0.59772  0.27234  0.41236  1.0000
  H   H10       1.0  0.35866  0.29035  0.03403  1.0000
  H   H11       1.0  0.12628  0.78149  0.42879  1.0000
  H   H12       1.0  0.88320  0.77984  0.06197  1.0000
  H   H13       1.0  0.74871  0.34566  0.18366  1.0000
  H   H14       1.0  0.27058  0.34413  0.37487  1.0000
  H   H15       1.0  0.24117  0.84828  0.13430  1.0000
  H   H16       1.0  0.76291  0.84562  0.35148  1.0000
  H   H17       1.0  0.67094  0.43090  0.16756  1.0000
  H   H18       1.0  0.35590  0.42647  0.39577  1.0000
  H   H19       1.0  0.15593  0.93051  0.11587  1.0000
  H   H20       1.0  0.84456  0.92947  0.36967  1.0000
  H   H21       1.0  0.23680  0.73498  0.38280  1.0000
  H   H22       1.0  0.77209  0.73068  0.10973  1.0000
  H   H23       1.0  0.70165  0.21936  0.36113  1.0000
  H   H24       1.0  0.25552  0.23899  0.09749  1.0000
  H   H25       1.0  0.35524  0.50023  0.72259  1.0000
  H   H26       1.0  0.64299  0.50196  0.76883  1.0000
  H   H27       1.0  0.85501  0.00133  0.73078  1.0000
  H   H28       1.0  0.14280  0.00018  0.77444  1.0000
  H   H29       1.0  0.65270  0.57147  0.61724  1.0000
  H   H30       1.0  0.15005  0.06976  0.61797  1.0000
  H   H31       1.0  0.73814  0.65169  0.63043  1.0000
  H   H32       1.0  0.23338  0.15014  0.62074  1.0000
  H   H33       1.0  0.62159  0.72589  0.91533  1.0000
  H   H34       1.0  0.12507  0.22561  0.91498  1.0000
  H   H35       1.0  0.53685  0.64412  0.90505  1.0000
  H   H36       1.0  0.04264  0.14320  0.91553  1.0000
  H   H37       1.0  0.47198  0.35882  0.59547  1.0000
  H   H38       1.0  0.95612  0.86464  0.57325  1.0000
  H   H39       1.0  0.38902  0.27625  0.57077  1.0000
  H   H40       1.0  0.86847  0.78400  0.54456  1.0000
  H   H41       1.0  0.25700  0.34463  0.84003  1.0000
  H   H42       1.0  0.76245  0.84353  0.85949  1.0000
  H   H43       1.0  0.33835  0.42855  0.86077  1.0000
  H   H44       1.0  0.84721  0.92620  0.88272  1.0000
  H   H45       1.0  0.23460  0.73360  0.90096  1.0000
  H   H46       1.0  0.75918  0.73465  0.59592  1.0000
  H   H47       1.0  0.74094  0.23613  0.90735  1.0000
  H   H48       1.0  0.28165  0.22533  0.61681  1.0000
  C   C1        1.0  0.54511  0.55222  0.26557  1.0000
  C   C2        1.0  0.46158  0.55332  0.24758  1.0000
  C   C3        1.0  0.04285  0.05304  0.25375  1.0000
  C   C4        1.0  0.96017  0.05244  0.24490  1.0000
  C   C5        1.0  0.42175  0.50338  0.24014  1.0000
  C   C6        1.0  0.58291  0.50146  0.27629  1.0000
  C   C7        1.0  0.92191  0.00206  0.23950  1.0000
  C   C8        1.0  0.08145  0.00279  0.25643  1.0000
  C   C9        1.0  0.45937  0.45285  0.24762  1.0000
  C   C10       1.0  0.54285  0.45147  0.26719  1.0000
  C   C11       1.0  0.96042  0.95194  0.24123  1.0000
  C   C12       1.0  0.04316  0.95238  0.25097  1.0000
  C   C13       1.0  0.58904  0.40041  0.28020  1.0000
  C   C14       1.0  0.40845  0.40377  0.23102  1.0000
  C   C15       1.0  0.09203  0.90261  0.26123  1.0000
  C   C16       1.0  0.91205  0.90185  0.22851  1.0000
  C   C17       1.0  0.56978  0.35474  0.34923  1.0000
  C   C18       1.0  0.40885  0.36480  0.12950  1.0000
  C   C19       1.0  0.08386  0.85962  0.34804  1.0000
  C   C20       1.0  0.92197  0.85883  0.14233  1.0000
  C   C21       1.0  0.61341  0.30701  0.35766  1.0000
  C   C22       1.0  0.35950  0.31954  0.11546  1.0000
  C   C23       1.0  0.13226  0.81411  0.35957  1.0000
  C   C24       1.0  0.87543  0.81230  0.13093  1.0000
  C   C25       1.0  0.67794  0.30295  0.29680  1.0000
  C   C26       1.0  0.31020  0.31107  0.20541  1.0000
  C   C27       1.0  0.18913  0.80942  0.28193  1.0000
  C   C28       1.0  0.81826  0.80671  0.20776  1.0000
  C   C29       1.0  0.69889  0.34892  0.23077  1.0000
  C   C30       1.0  0.30897  0.35048  0.30592  1.0000
  C   C31       1.0  0.19761  0.85225  0.19493  1.0000
  C   C32       1.0  0.80726  0.84998  0.29257  1.0000
  C   C33       1.0  0.65529  0.39647  0.22283  1.0000
  C   C34       1.0  0.35657  0.39637  0.31707  1.0000
  C   C35       1.0  0.15010  0.89809  0.18559  1.0000
  C   C36       1.0  0.85294  0.89676  0.30189  1.0000
  C   C37       1.0  0.23707  0.76036  0.29364  1.0000
  C   C38       1.0  0.77220  0.75662  0.19851  1.0000
  C   C39       1.0  0.72028  0.25166  0.30079  1.0000
  C   C40       1.0  0.26196  0.26189  0.19312  1.0000
  C   C41       1.0  0.53984  0.55167  0.75156  1.0000
  C   C42       1.0  0.45719  0.55114  0.74343  1.0000
  C   C43       1.0  0.04085  0.05095  0.75921  1.0000
  C   C44       1.0  0.95816  0.05141  0.75105  1.0000
  C   C45       1.0  0.41930  0.50054  0.73786  1.0000
  C   C46       1.0  0.57908  0.50159  0.75610  1.0000
  C   C47       1.0  0.91900  0.00122  0.74423  1.0000
  C   C48       1.0  0.07887  0.00053  0.76156  1.0000
  C   C49       1.0  0.45856  0.45050  0.74234  1.0000
  C   C50       1.0  0.54144  0.45122  0.75425  1.0000
  C   C51       1.0  0.95703  0.95094  0.74537  1.0000
  C   C52       1.0  0.03968  0.95053  0.75564  1.0000
  C   C53       1.0  0.58804  0.60165  0.75949  1.0000
  C   C54       1.0  0.08989  0.10043  0.76581  1.0000
  C   C55       1.0  0.41150  0.39986  0.73018  1.0000
  C   C56       1.0  0.90819  0.90105  0.73067  1.0000
  C   C57       1.0  0.64637  0.60496  0.68433  1.0000
  C   C58       1.0  0.14556  0.10353  0.68535  1.0000
  C   C59       1.0  0.69388  0.65076  0.69018  1.0000
  C   C60       1.0  0.19224  0.14939  0.68630  1.0000
  C   C61       1.0  0.68418  0.69569  0.77134  1.0000
  C   C62       1.0  0.18468  0.19454  0.76828  1.0000
  C   C63       1.0  0.62757  0.69178  0.84994  1.0000
  C   C64       1.0  0.13008  0.19096  0.85072  1.0000
  C   C65       1.0  0.58004  0.64597  0.84335  1.0000
  C   C66       1.0  0.08373  0.14492  0.84995  1.0000
  C   C67       1.0  0.42524  0.35587  0.64968  1.0000
  C   C68       1.0  0.91395  0.86014  0.63626  1.0000
  C   C69       1.0  0.37886  0.30922  0.63656  1.0000
  C   C70       1.0  0.86514  0.81463  0.62085  1.0000
  C   C71       1.0  0.31827  0.30415  0.70647  1.0000
  C   C72       1.0  0.81089  0.80774  0.70273  1.0000
  C   C73       1.0  0.30381  0.34829  0.78607  1.0000
  C   C74       1.0  0.80465  0.84877  0.79678  1.0000
  C   C75       1.0  0.34921  0.39521  0.79673  1.0000
  C   C76       1.0  0.85188  0.89484  0.80906  1.0000
  C   C77       1.0  0.22946  0.75613  0.80552  1.0000
  C   C78       1.0  0.76331  0.75828  0.68987  1.0000
  C   C79       1.0  0.73641  0.25926  0.81294  1.0000
  C   C80       1.0  0.27323  0.25363  0.69646  1.0000
  N   N1        1.0  0.77502  0.24505  0.23516  1.0000
  N   N2        1.0  0.22887  0.24685  0.28876  1.0000
  N   N3        1.0  0.27712  0.74789  0.20529  1.0000
  N   N4        1.0  0.73377  0.74436  0.28922  1.0000
  N   N5        1.0  0.77130  0.24439  0.71932  1.0000
  N   N6        1.0  0.22751  0.24345  0.77735  1.0000
  N   N7        1.0  0.26388  0.74118  0.71130  1.0000
  N   N8        1.0  0.72813  0.74409  0.78347  1.0000
  C  Sn1       1.0  0.92862  0.16380  0.68685  1.0000
  C   C81       1.0  0.92487  0.11560  0.75753  1.0000
  C  Sn2       1.0  0.85905  0.10428  0.80930  1.0000
  C  Sn3       1.0  0.79564  0.14190  0.78996  1.0000
  C   C82       1.0  0.79941  0.19006  0.71931  1.0000
  C  Sn4       1.0  0.86521  0.20142  0.66752  1.0000
  O  Te1       1.0  0.99499  0.17427  0.63597  1.0000
  O  Te2       1.0  0.85666  0.05583  0.87964  1.0000
  O  Te3       1.0  0.72924  0.13138  0.84092  1.0000
  O  Te4       1.0  0.86762  0.24983  0.59719  1.0000
  Mg  Mg1       1.0  0.75352  0.05985  0.92967  1.0000
  Mg  Mg2       1.0  0.97070  0.24584  0.54707  1.0000
  C  Sn5       1.0  0.83787  0.14733  0.36270  1.0000
  C   C83       1.0  0.83188  0.19335  0.28049  1.0000
  C  Sn6       1.0  0.86049  0.19242  0.16280  1.0000
  C  Sn7       1.0  0.89577  0.14446  0.12646  1.0000
  C   C84       1.0  0.90173  0.09847  0.20863  1.0000
  C  Sn8       1.0  0.87315  0.09937  0.32636  1.0000
  O  Te5       1.0  0.80886  0.14918  0.47989  1.0000
  O  Te6       1.0  0.85386  0.23894  0.08226  1.0000
  O  Te7       1.0  0.92479  0.14264  0.00916  1.0000
  O  Te8       1.0  0.87975  0.05288  0.40686  1.0000
  Mg  Mg3       1.0  0.04152  0.21785  0.93239  1.0000
  Mg  Mg4       1.0  0.83148  0.07541  0.55671  1.0000
  C  Sn9       1.0  0.32331  0.60886  0.27211  1.0000
  C   C85       1.0  0.38806  0.59968  0.21572  1.0000
  C  Sn10      1.0  0.42411  0.64289  0.16464  1.0000
  C  Sn11      1.0  0.39485  0.69640  0.17012  1.0000
  C   C86       1.0  0.33015  0.70557  0.22650  1.0000
  C  Sn12      1.0  0.29405  0.66238  0.27758  1.0000
  O  Te9       1.0  0.28820  0.56506  0.32257  1.0000
  O  Te10      1.0  0.48875  0.63269  0.10870  1.0000
  O  Te11      1.0  0.43002  0.74022  0.11959  1.0000
  O  Te12      1.0  0.22946  0.67255  0.33351  1.0000
  Mg  Mg5       1.0  0.51655  0.70573  0.05325  1.0000
  Mg  Mg6       1.0  0.20164  0.59955  0.38906  1.0000
  C  Sn13      1.0  0.17954  0.10846  0.21947  1.0000
  C   C87       1.0  0.11714  0.09920  0.28156  1.0000
  C  Sn14      1.0  0.08309  0.14235  0.33710  1.0000
  C  Sn15      1.0  0.11198  0.19588  0.33037  1.0000
  C   C88       1.0  0.17434  0.20513  0.26829  1.0000
  C  Sn16      1.0  0.20843  0.16200  0.21274  1.0000
  O  Te13      1.0  0.21268  0.06471  0.16462  1.0000
  O  Te14      1.0  0.02078  0.13208  0.39870  1.0000
  O  Te15      1.0  0.07879  0.23964  0.38530  1.0000
  O  Te16      1.0  0.27069  0.17225  0.15115  1.0000
  Mg  Mg7       1.0  0.99510  0.20506  0.45866  1.0000
  Mg  Mg8       1.0  0.29639  0.09930  0.09111  1.0000
  C  Sn17      1.0  0.42166  0.66266  0.67260  1.0000
  C   C89       1.0  0.42273  0.61548  0.74935  1.0000
  C  Sn18      1.0  0.35984  0.60355  0.80820  1.0000
  C  Sn19      1.0  0.29447  0.63950  0.78987  1.0000
  C   C90       1.0  0.29341  0.68664  0.71314  1.0000
  C  Sn20      1.0  0.35629  0.69861  0.65427  1.0000
  O  Te17      1.0  0.48517  0.67377  0.61470  1.0000
  O  Te18      1.0  0.36227  0.55614  0.88454  1.0000
  O  Te19      1.0  0.23093  0.62835  0.84786  1.0000
  O  Te20      1.0  0.35388  0.74598  0.57795  1.0000
  Mg  Mg9       1.0  0.26157  0.55873  0.94304  1.0000
  Mg  Mg10      1.0  0.45452  0.74342  0.51935  1.0000
  C  Sn21      1.0  0.09901  0.81383  0.85037  1.0000
  C   C91       1.0  0.15763  0.80102  0.78210  1.0000
  C  Sn22      1.0  0.18706  0.84085  0.70937  1.0000
  C  Sn23      1.0  0.15733  0.89462  0.70485  1.0000
  C   C92       1.0  0.09875  0.90741  0.77311  1.0000
  C  Sn24      1.0  0.06927  0.86760  0.84585  1.0000
  O  Te21      1.0  0.07045  0.77337  0.92245  1.0000
  O  Te22      1.0  0.24565  0.82707  0.64189  1.0000
  O  Te23      1.0  0.18594  0.93508  0.63269  1.0000
  O  Te24      1.0  0.01074  0.88137  0.91332  1.0000
  Mg  Mg11      1.0  0.26573  0.89638  0.55739  1.0000
  Mg  Mg12      1.0  0.99064  0.81209  0.99791  1.0000
  C  Sn25      1.0  0.68332  0.60516  0.22932  1.0000
  C   C93       1.0  0.62073  0.59753  0.29190  1.0000
  C  Sn26      1.0  0.58733  0.64182  0.34421  1.0000
  C  Sn27      1.0  0.61707  0.69486  0.33369  1.0000
  C   C94       1.0  0.67962  0.70248  0.27113  1.0000
  C  Sn28      1.0  0.71307  0.65820  0.21881  1.0000
  O  Te25      1.0  0.71581  0.56029  0.17774  1.0000
  O  Te26      1.0  0.52482  0.63318  0.40636  1.0000
  O  Te27      1.0  0.58453  0.73975  0.38535  1.0000
  O  Te28      1.0  0.77553  0.66682  0.15666  1.0000
  Mg  Mg13      1.0  0.50024  0.70724  0.46096  1.0000
  Mg  Mg14      1.0  0.80013  0.59280  0.10198  1.0000
  C  Sn29      1.0  0.60993  0.31821  0.86780  1.0000
  C   C95       1.0  0.66491  0.30383  0.79327  1.0000
  C  Sn30      1.0  0.68953  0.34184  0.70984  1.0000
  C  Sn31      1.0  0.65859  0.39535  0.70077  1.0000
  C   C96       1.0  0.60365  0.40971  0.77528  1.0000
  C  Sn32      1.0  0.57899  0.37172  0.85872  1.0000
  O  Te29      1.0  0.58616  0.27955  0.95056  1.0000
  O  Te30      1.0  0.74454  0.32651  0.63628  1.0000
  O  Te31      1.0  0.68241  0.43401  0.61792  1.0000
  O  Te32      1.0  0.52402  0.38703  0.93227  1.0000
  Mg  Mg15      1.0  0.75862  0.39365  0.53758  1.0000
  Mg  Mg16      1.0  0.37054  0.31844  0.03105  1.0000
