data_image0
_chemical_formula_structural       H16C32N8C2Sn2C2HTe2HMgC2Sn2C2HTe2HMgC2Sn2C2HTe2HMgC2Sn2C2HTe2HMgC2Sn2C2HTe2HMgC2Sn2C2HTe2HMgC2Sn2C2HTe2HMgC2Sn2C2HTe2HMgC2Sn2C2HTe2HMgC2Sn2C2HTe2HMgC2Sn2C2HTe2HMgC2Sn2C2HTe2HMgC2Sn2C2HTe2HMgC2Sn2C2HTe2HMgC2Sn2C2HTe2HMgC2Sn2C2HTe2HMg
_chemical_formula_sum              "H48 C96 N8 Sn32 Te32 Mg16"
_cell_length_a       17.3948
_cell_length_b       24.6228
_cell_length_c       10.1228
_cell_angle_alpha    90.2043
_cell_angle_beta     103.859
_cell_angle_gamma    90.0139

_symmetry_space_group_name_H-M    'P1'
_space_group_IT_number       1

loop_
  _space_group_symop_operation_xyz
  'x, y, z'

loop_
  _atom_site_type_symbol
  _atom_site_label
  _atom_site_symmetry_multiplicity
  _atom_site_fract_x
  _atom_site_fract_y
  _atom_site_fract_z
  _atom_site_occupancy
  H   H1        1.0  0.35748  0.50363  0.22081  1.0000
  H   H2        1.0  0.64727  0.50115  0.29742  1.0000
  H   H3        1.0  0.85809  0.00194  0.22775  1.0000
  H   H4        1.0  0.14542  0.00281  0.27036  1.0000
  H   H5        1.0  0.23680  0.73498  0.38280  1.0000
  H   H6        1.0  0.77209  0.73068  0.10973  1.0000
  H   H7        1.0  0.70165  0.21936  0.36113  1.0000
  H   H8        1.0  0.25552  0.23899  0.09749  1.0000
  H   H9        1.0  0.35524  0.50023  0.72259  1.0000
  H   H10       1.0  0.64299  0.50196  0.76883  1.0000
  H   H11       1.0  0.85501  0.00133  0.73078  1.0000
  H   H12       1.0  0.14280  0.00018  0.77444  1.0000
  H   H13       1.0  0.23460  0.73360  0.90096  1.0000
  H   H14       1.0  0.75918  0.73465  0.59592  1.0000
  H   H15       1.0  0.74094  0.23613  0.90735  1.0000
  H   H16       1.0  0.28165  0.22533  0.61681  1.0000
  C   C1        1.0  0.54511  0.55222  0.26557  1.0000
  C   C2        1.0  0.46158  0.55332  0.24758  1.0000
  C   C3        1.0  0.04285  0.05304  0.25375  1.0000
  C   C4        1.0  0.96017  0.05244  0.24490  1.0000
  C   C5        1.0  0.42175  0.50338  0.24014  1.0000
  C   C6        1.0  0.58291  0.50146  0.27629  1.0000
  C   C7        1.0  0.92191  0.00206  0.23950  1.0000
  C   C8        1.0  0.08145  0.00279  0.25643  1.0000
  C   C9        1.0  0.45937  0.45285  0.24762  1.0000
  C   C10       1.0  0.54285  0.45147  0.26719  1.0000
  C   C11       1.0  0.96042  0.95194  0.24123  1.0000
  C   C12       1.0  0.04316  0.95238  0.25097  1.0000
  C   C13       1.0  0.23707  0.76036  0.29364  1.0000
  C   C14       1.0  0.77220  0.75662  0.19851  1.0000
  C   C15       1.0  0.72028  0.25166  0.30079  1.0000
  C   C16       1.0  0.26196  0.26189  0.19312  1.0000
  C   C17       1.0  0.53984  0.55167  0.75156  1.0000
  C   C18       1.0  0.45719  0.55114  0.74343  1.0000
  C   C19       1.0  0.04085  0.05095  0.75921  1.0000
  C   C20       1.0  0.95816  0.05141  0.75105  1.0000
  C   C21       1.0  0.41930  0.50054  0.73786  1.0000
  C   C22       1.0  0.57908  0.50159  0.75610  1.0000
  C   C23       1.0  0.91900  0.00122  0.74423  1.0000
  C   C24       1.0  0.07887  0.00053  0.76156  1.0000
  C   C25       1.0  0.45856  0.45050  0.74234  1.0000
  C   C26       1.0  0.54144  0.45122  0.75425  1.0000
  C   C27       1.0  0.95703  0.95094  0.74537  1.0000
  C   C28       1.0  0.03968  0.95053  0.75564  1.0000
  C   C29       1.0  0.22946  0.75613  0.80552  1.0000
  C   C30       1.0  0.76331  0.75828  0.68987  1.0000
  C   C31       1.0  0.73641  0.25926  0.81294  1.0000
  C   C32       1.0  0.27323  0.25363  0.69646  1.0000
  N   N1        1.0  0.77502  0.24505  0.23516  1.0000
  N   N2        1.0  0.22887  0.24685  0.28876  1.0000
  N   N3        1.0  0.27712  0.74789  0.20529  1.0000
  N   N4        1.0  0.73377  0.74436  0.28922  1.0000
  N   N5        1.0  0.77130  0.24439  0.71932  1.0000
  N   N6        1.0  0.22751  0.24345  0.77735  1.0000
  N   N7        1.0  0.26388  0.74118  0.71130  1.0000
  N   N8        1.0  0.72813  0.74409  0.78347  1.0000
  C   C33       1.0  0.59155  0.66096  0.36738  1.0000
  C   C34       1.0  0.58837  0.61357  0.28987  1.0000
  C  Sn1       1.0  0.64188  0.60563  0.20838  1.0000
  C  Sn2       1.0  0.69960  0.64595  0.20465  1.0000
  C   C35       1.0  0.70233  0.69320  0.28265  1.0000
  C   C36       1.0  0.64848  0.70074  0.36381  1.0000
  H   H17       1.0  0.54992  0.66678  0.43024  1.0000
  O  Te1       1.0  0.63785  0.55806  0.13154  1.0000
  O  Te2       1.0  0.75382  0.63905  0.12413  1.0000
  H   H18       1.0  0.65100  0.73742  0.42388  1.0000
  Mg  Mg1       1.0  0.72461  0.56733  0.03757  1.0000
  C   C37       1.0  0.30848  0.63915  0.30464  1.0000
  C   C38       1.0  0.31486  0.68842  0.23996  1.0000
  C  Sn3       1.0  0.37147  0.69485  0.16389  1.0000
  C  Sn4       1.0  0.42255  0.65107  0.15251  1.0000
  C   C39       1.0  0.41565  0.60193  0.21752  1.0000
  C   C40       1.0  0.35881  0.59594  0.29343  1.0000
  H   H19       1.0  0.26447  0.63450  0.36331  1.0000
  O  Te3       1.0  0.37707  0.74435  0.09996  1.0000
  O  Te4       1.0  0.47963  0.65639  0.07707  1.0000
  H   H20       1.0  0.35385  0.55778  0.34342  1.0000
  Mg  Mg2       1.0  0.46431  0.73181  0.00864  1.0000
  C   C41       1.0  0.16594  0.11458  0.17844  1.0000
  C   C42       1.0  0.10889  0.10213  0.25019  1.0000
  C  Sn5       1.0  0.08796  0.14051  0.33731  1.0000
  C  Sn6       1.0  0.12490  0.19230  0.35265  1.0000
  C   C43       1.0  0.18186  0.20437  0.28034  1.0000
  C   C44       1.0  0.20239  0.16565  0.19346  1.0000
  H   H21       1.0  0.18180  0.08463  0.11116  1.0000
  O  Te5       1.0  0.03087  0.12740  0.40827  1.0000
  O  Te6       1.0  0.10507  0.23143  0.43901  1.0000
  H   H22       1.0  0.24652  0.17531  0.13785  1.0000
  Mg  Mg3       1.0  0.02388  0.19433  0.51388  1.0000
  C   C45       1.0  0.88458  0.18471  0.14076  1.0000
  C   C46       1.0  0.82697  0.19472  0.21317  1.0000
  C  Sn7       1.0  0.81329  0.15698  0.30774  1.0000
  C  Sn8       1.0  0.85824  0.10835  0.33003  1.0000
  C   C47       1.0  0.91577  0.09874  0.25715  1.0000
  C   C48       1.0  0.92896  0.13677  0.16273  1.0000
  H   H23       1.0  0.89482  0.21415  0.06776  1.0000
  O  Te7       1.0  0.75549  0.16761  0.37917  1.0000
  O  Te8       1.0  0.84580  0.06995  0.42398  1.0000
  H   H24       1.0  0.97360  0.12903  0.10675  1.0000
  Mg  Mg4       1.0  0.76036  0.10284  0.49638  1.0000
  C   C49       1.0  0.67337  0.38937  0.21758  1.0000
  C   C50       1.0  0.60415  0.39984  0.26038  1.0000
  C  Sn9       1.0  0.57303  0.36054  0.33223  1.0000
  C  Sn10      1.0  0.61207  0.30986  0.36165  1.0000
  C   C51       1.0  0.68131  0.29980  0.31847  1.0000
  C   C52       1.0  0.71193  0.33941  0.24661  1.0000
  H   H25       1.0  0.69709  0.42003  0.16205  1.0000
  O  Te9       1.0  0.50381  0.37165  0.37419  1.0000
  O  Te10      1.0  0.58226  0.26986  0.43333  1.0000
  H   H26       1.0  0.76555  0.33130  0.21356  1.0000
  Mg  Mg5       1.0  0.48624  0.30419  0.46890  1.0000
  C   C53       1.0  0.34016  0.38903  0.32760  1.0000
  C   C54       1.0  0.39688  0.40257  0.25605  1.0000
  C  Sn11      1.0  0.40740  0.36973  0.14893  1.0000
  C  Sn12      1.0  0.36015  0.32250  0.11299  1.0000
  C   C55       1.0  0.30353  0.30934  0.18514  1.0000
  C   C56       1.0  0.29352  0.34247  0.29219  1.0000
  H   H27       1.0  0.33237  0.41469  0.41038  1.0000
  O  Te11      1.0  0.46435  0.38383  0.07854  1.0000
  O  Te12      1.0  0.36942  0.28897  0.00633  1.0000
  H   H28       1.0  0.24956  0.33201  0.34751  1.0000
  Mg  Mg6       1.0  0.59426  0.32674  0.94093  1.0000
  C   C57       1.0  0.19059  0.86518  0.17664  1.0000
  C   C58       1.0  0.19575  0.82088  0.26422  1.0000
  C  Sn13      1.0  0.14420  0.81656  0.35040  1.0000
  C  Sn14      1.0  0.08644  0.85741  0.34860  1.0000
  C   C59       1.0  0.08172  0.90155  0.26053  1.0000
  C   C60       1.0  0.13362  0.90548  0.17476  1.0000
  H   H29       1.0  0.23072  0.86821  0.11022  1.0000
  O  Te13      1.0  0.15019  0.77204  0.43730  1.0000
  O  Te14      1.0  0.03415  0.85409  0.43362  1.0000
  H   H30       1.0  0.12958  0.93977  0.10690  1.0000
  Mg  Mg7       1.0  0.06563  0.78564  0.53407  1.0000
  C   C61       1.0  0.91820  0.84461  0.12917  1.0000
  C   C62       1.0  0.91352  0.89244  0.20156  1.0000
  C  Sn15      1.0  0.86017  0.89645  0.28464  1.0000
  C  Sn16      1.0  0.81066  0.85169  0.29528  1.0000
  C   C63       1.0  0.81583  0.80400  0.22253  1.0000
  C   C64       1.0  0.86941  0.80042  0.13965  1.0000
  H   H31       1.0  0.95968  0.84182  0.06511  1.0000
  O  Te15      1.0  0.85624  0.94455  0.35622  1.0000
  O  Te16      1.0  0.75683  0.85460  0.37762  1.0000
  H   H32       1.0  0.87305  0.76337  0.08369  1.0000
  Mg  Mg8       1.0  0.77340  0.92882  0.45515  1.0000
  C   C65       1.0  0.68946  0.63645  0.67814  1.0000
  C   C66       1.0  0.68723  0.68545  0.74719  1.0000
  C  Sn17      1.0  0.63483  0.69208  0.83124  1.0000
  C  Sn18      1.0  0.58381  0.64878  0.84627  1.0000
  C   C67       1.0  0.58653  0.59991  0.77683  1.0000
  C   C68       1.0  0.63917  0.59371  0.69294  1.0000
  H   H33       1.0  0.73022  0.63163  0.61329  1.0000
  O  Te17      1.0  0.63335  0.74132  0.89945  1.0000
  O  Te18      1.0  0.53089  0.65431  0.92967  1.0000
  H   H34       1.0  0.64092  0.55575  0.63956  1.0000
  Mg  Mg9       1.0  0.41152  0.72773  0.00147  1.0000
  C   C69       1.0  0.40548  0.65727  0.63276  1.0000
  C   C70       1.0  0.41335  0.61226  0.71865  1.0000
  C  Sn19      1.0  0.36373  0.60622  0.80764  1.0000
  C  Sn20      1.0  0.30518  0.64604  0.81042  1.0000
  C   C71       1.0  0.29775  0.69090  0.72402  1.0000
  C   C72       1.0  0.34773  0.69655  0.63541  1.0000
  H   H35       1.0  0.44412  0.66163  0.56414  1.0000
  O  Te19      1.0  0.37241  0.56101  0.89280  1.0000
  O  Te20      1.0  0.25478  0.64099  0.89833  1.0000
  H   H36       1.0  0.34159  0.73139  0.56885  1.0000
  Mg  Mg10      1.0  0.28968  0.57220  0.99483  1.0000
  C   C73       1.0  0.11322  0.18432  0.86153  1.0000
  C   C74       1.0  0.17358  0.19348  0.79466  1.0000
  C  Sn21      1.0  0.19055  0.15459  0.70490  1.0000
  C  Sn22      1.0  0.14615  0.10567  0.68183  1.0000
  C   C75       1.0  0.08585  0.09691  0.74915  1.0000
  C   C76       1.0  0.06938  0.13608  0.83879  1.0000
  H   H37       1.0  0.10045  0.21464  0.93083  1.0000
  O  Te21      1.0  0.25108  0.16439  0.63897  1.0000
  O  Te22      1.0  0.16185  0.06613  0.59260  1.0000
  H   H38       1.0  0.02261  0.12899  0.89048  1.0000
  Mg  Mg11      1.0  0.25018  0.09820  0.52685  1.0000
  C   C77       1.0  0.89049  0.18543  0.64746  1.0000
  C   C78       1.0  0.82681  0.19496  0.70635  1.0000
  C  Sn23      1.0  0.80592  0.15640  0.79253  1.0000
  C  Sn24      1.0  0.84973  0.10743  0.82011  1.0000
  C   C79       1.0  0.91338  0.09830  0.76077  1.0000
  C   C80       1.0  0.93375  0.13715  0.67465  1.0000
  H   H39       1.0  0.90628  0.21550  0.58089  1.0000
  O  Te23      1.0  0.74211  0.16656  0.85047  1.0000
  O  Te24      1.0  0.83016  0.06822  0.90590  1.0000
  H   H40       1.0  0.98309  0.12978  0.62915  1.0000
  Mg  Mg12      1.0  0.73831  0.10072  0.96058  1.0000
  C   C81       1.0  0.62591  0.32709  0.90310  1.0000
  C   C82       1.0  0.67520  0.30892  0.82157  1.0000
  C  Sn25      1.0  0.68501  0.34008  0.71167  1.0000
  C  Sn26      1.0  0.64465  0.39033  0.68313  1.0000
  C   C83       1.0  0.59552  0.40816  0.76537  1.0000
  C   C84       1.0  0.58611  0.37666  0.87506  1.0000
  H   H41       1.0  0.61866  0.30273  0.98801  1.0000
  O  Te25      1.0  0.73446  0.32132  0.63122  1.0000
  O  Te26      1.0  0.65341  0.42228  0.57396  1.0000
  H   H42       1.0  0.54798  0.39075  0.93822  1.0000
  Mg  Mg13      1.0  0.72730  0.37936  0.49383  1.0000
  C   C85       1.0  0.42190  0.34154  0.63710  1.0000
  C   C86       1.0  0.41458  0.38999  0.70533  1.0000
  C  Sn27      1.0  0.35769  0.39482  0.78146  1.0000
  C  Sn28      1.0  0.30731  0.35023  0.78929  1.0000
  C   C87       1.0  0.31515  0.30192  0.72075  1.0000
  C   C88       1.0  0.37225  0.29754  0.64481  1.0000
  H   H43       1.0  0.46611  0.33814  0.57841  1.0000
  O  Te27      1.0  0.35115  0.44353  0.84895  1.0000
  O  Te28      1.0  0.24997  0.35394  0.86471  1.0000
  H   H44       1.0  0.37795  0.26000  0.59208  1.0000
  Mg  Mg14      1.0  0.26391  0.42879  0.93875  1.0000
  C   C89       1.0  0.11394  0.82180  0.88824  1.0000
  C   C90       1.0  0.16699  0.80540  0.81183  1.0000
  C  Sn29      1.0  0.18235  0.83907  0.71032  1.0000
  C  Sn30      1.0  0.14381  0.89008  0.68510  1.0000
  C   C91       1.0  0.09088  0.90613  0.76217  1.0000
  C   C92       1.0  0.07592  0.87212  0.86347  1.0000
  H   H45       1.0  0.10239  0.79550  0.96667  1.0000
  O  Te29      1.0  0.23551  0.82204  0.63489  1.0000
  O  Te30      1.0  0.15810  0.92453  0.58430  1.0000
  H   H46       1.0  0.03488  0.88484  0.92267  1.0000
  Mg  Mg15      1.0  0.23546  0.88328  0.50852  1.0000
  C   C93       1.0  0.81197  0.86144  0.81634  1.0000
  C   C94       1.0  0.80510  0.81868  0.72308  1.0000
  C  Sn31      1.0  0.85440  0.81644  0.63267  1.0000
  C  Sn32      1.0  0.91161  0.85783  0.63595  1.0000
  C   C95       1.0  0.91805  0.90041  0.72970  1.0000
  C   C96       1.0  0.86839  0.90227  0.81969  1.0000
  H   H47       1.0  0.77358  0.86286  0.88602  1.0000
  O  Te31      1.0  0.84673  0.77344  0.54012  1.0000
  O  Te32      1.0  0.96166  0.85657  0.54678  1.0000
  H   H48       1.0  0.87376  0.93536  0.89194  1.0000
  Mg  Mg16      1.0  0.92849  0.78964  0.43921  1.0000
