data_image0
_chemical_formula_structural       H16C32N8SnCSn2CSnTe4Mg2SnCSn2CSnTe4Mg2SnCSn2CSnTe4Mg2SnCSn2CSnTe4Mg2SnCSn2CSnTe4Mg2SnCSn2CSnTe4Mg2SnCSn2CSnTe4Mg2SnCSn2CSnTe4Mg2SnCSn2CSnTe4Mg2SnCSn2CSnTe4Mg2SnCSn2CSnTe4Mg2SnCSn2CSnTe4Mg2SnCSn2CSnTe4Mg2SnCSn2CSnTe4Mg2SnCSn2CSnTe4Mg2SnCSn2CSnTe4Mg2
_chemical_formula_sum              "H16 C64 N8 Sn64 Te64 Mg32"
_cell_length_a       17.189
_cell_length_b       24.777
_cell_length_c       11.2871
_cell_angle_alpha    90.2933
_cell_angle_beta     117.742
_cell_angle_gamma    90.0285

_symmetry_space_group_name_H-M    'P1'
_space_group_IT_number       1

loop_
  _space_group_symop_operation_xyz
  'x, y, z'

loop_
  _atom_site_type_symbol
  _atom_site_label
  _atom_site_symmetry_multiplicity
  _atom_site_fract_x
  _atom_site_fract_y
  _atom_site_fract_z
  _atom_site_occupancy
  H   H1        1.0  0.74932  0.27277  0.12074  1.0000
  H   H2        1.0  0.75155  0.72774  0.12789  1.0000
  H   H3        1.0  0.23860  0.76755  0.12847  1.0000
  H   H4        1.0  0.24736  0.22994  0.12549  1.0000
  H   H5        1.0  0.34718  0.49973  0.23487  1.0000
  H   H6        1.0  0.84340  0.00026  0.21981  1.0000
  H   H7        1.0  0.64808  0.50235  0.28942  1.0000
  H   H8        1.0  0.14705  0.00158  0.28713  1.0000
  H   H9        1.0  0.74176  0.26976  0.62682  1.0000
  H   H10       1.0  0.73673  0.73049  0.62199  1.0000
  H   H11       1.0  0.25265  0.77168  0.63155  1.0000
  H   H12       1.0  0.26299  0.22260  0.64066  1.0000
  H   H13       1.0  0.34429  0.49911  0.73363  1.0000
  H   H14       1.0  0.84258  0.99715  0.73412  1.0000
  H   H15       1.0  0.64632  0.49996  0.79282  1.0000
  H   H16       1.0  0.13848  0.00185  0.76821  1.0000
  C   C1        1.0  0.53990  0.55160  0.26880  1.0000
  C   C2        1.0  0.54085  0.45161  0.26488  1.0000
  C   C3        1.0  0.03765  0.05123  0.25836  1.0000
  C   C4        1.0  0.03940  0.95103  0.26243  1.0000
  C   C5        1.0  0.45392  0.55063  0.25683  1.0000
  C   C6        1.0  0.45485  0.45084  0.25237  1.0000
  C   C7        1.0  0.95074  0.05072  0.24282  1.0000
  C   C8        1.0  0.95232  0.95080  0.24618  1.0000
  C   C9        1.0  0.75758  0.24595  0.20307  1.0000
  C   C10       1.0  0.75829  0.75589  0.20781  1.0000
  C   C11       1.0  0.25415  0.74264  0.21701  1.0000
  C   C12       1.0  0.25932  0.25632  0.21104  1.0000
  C   C13       1.0  0.41452  0.50032  0.25008  1.0000
  C   C14       1.0  0.91134  0.00060  0.23795  1.0000
  C   C15       1.0  0.58059  0.50192  0.27347  1.0000
  C   C16       1.0  0.07894  0.00128  0.26827  1.0000
  C   C17       1.0  0.53826  0.54947  0.76918  1.0000
  C   C18       1.0  0.53808  0.44945  0.76672  1.0000
  C   C19       1.0  0.03071  0.04986  0.75225  1.0000
  C   C20       1.0  0.03466  0.95016  0.75601  1.0000
  C   C21       1.0  0.45199  0.54923  0.75610  1.0000
  C   C22       1.0  0.45145  0.44924  0.75254  1.0000
  C   C23       1.0  0.94637  0.04887  0.74598  1.0000
  C   C24       1.0  0.95002  0.94924  0.74860  1.0000
  C   C25       1.0  0.75265  0.24299  0.71053  1.0000
  C   C26       1.0  0.75309  0.75579  0.71085  1.0000
  C   C27       1.0  0.25865  0.74478  0.71255  1.0000
  C   C28       1.0  0.25777  0.25324  0.70745  1.0000
  C   C29       1.0  0.41182  0.49915  0.74965  1.0000
  C   C30       1.0  0.90891  0.99847  0.74528  1.0000
  C   C31       1.0  0.57844  0.49957  0.77499  1.0000
  C   C32       1.0  0.07219  0.00061  0.75725  1.0000
  N   N1        1.0  0.23189  0.75693  0.30752  1.0000
  N   N2        1.0  0.23251  0.24421  0.29753  1.0000
  N   N3        1.0  0.72962  0.25831  0.28825  1.0000
  N   N4        1.0  0.72836  0.74530  0.29137  1.0000
  N   N5        1.0  0.22687  0.75683  0.79323  1.0000
  N   N6        1.0  0.21560  0.24514  0.77569  1.0000
  N   N7        1.0  0.72727  0.25542  0.79869  1.0000
  N   N8        1.0  0.73146  0.74236  0.80235  1.0000
  C  Sn1       1.0  0.64517  0.68009  0.39171  1.0000
  C   C33       1.0  0.69508  0.68938  0.32522  1.0000
  C  Sn2       1.0  0.68737  0.65511  0.22161  1.0000
  C  Sn3       1.0  0.62850  0.61064  0.18361  1.0000
  C   C34       1.0  0.57863  0.60138  0.25007  1.0000
  C  Sn4       1.0  0.58631  0.63562  0.35371  1.0000
  O  Te1       1.0  0.65394  0.71487  0.49499  1.0000
  O  Te2       1.0  0.73797  0.66521  0.15665  1.0000
  O  Te3       1.0  0.61977  0.57585  0.08024  1.0000
  O  Te4       1.0  0.53574  0.62555  0.41863  1.0000
  Mg  Mg1       1.0  0.70278  0.60639  0.02202  1.0000
  Mg  Mg2       1.0  0.57083  0.68435  0.55322  1.0000
  C  Sn5       1.0  0.60759  0.31374  0.32900  1.0000
  C   C35       1.0  0.65822  0.30413  0.26368  1.0000
  C  Sn6       1.0  0.68391  0.34688  0.20933  1.0000
  C  Sn7       1.0  0.65852  0.40034  0.22056  1.0000
  C   C36       1.0  0.60793  0.40992  0.28586  1.0000
  C  Sn8       1.0  0.58220  0.36720  0.34023  1.0000
  O  Te5       1.0  0.58265  0.27039  0.38259  1.0000
  O  Te6       1.0  0.73449  0.33627  0.14445  1.0000
  O  Te7       1.0  0.68350  0.44369  0.16690  1.0000
  O  Te8       1.0  0.53166  0.37778  0.40509  1.0000
  Mg  Mg3       1.0  0.75228  0.40876  0.08787  1.0000
  Mg  Mg4       1.0  0.51387  0.30534  0.46177  1.0000
  C  Sn9       1.0  0.07283  0.16406  0.31394  1.0000
  C   C37       1.0  0.07109  0.11476  0.25203  1.0000
  C  Sn10      1.0  0.13578  0.10254  0.21422  1.0000
  C  Sn11      1.0  0.20368  0.14036  0.23889  1.0000
  C   C38       1.0  0.20541  0.18962  0.30079  1.0000
  C  Sn12      1.0  0.14073  0.20189  0.33861  1.0000
  O  Te9       1.0  0.00748  0.17543  0.35089  1.0000
  O  Te10      1.0  0.13263  0.05300  0.15243  1.0000
  O  Te11      1.0  0.26905  0.12895  0.20188  1.0000
  O  Te12      1.0  0.14387  0.25139  0.40039  1.0000
  Mg  Mg5       1.0  0.23652  0.05608  0.12065  1.0000
  Mg  Mg6       1.0  0.04004  0.24833  0.43228  1.0000
  C  Sn13      1.0  0.10321  0.81277  0.33259  1.0000
  C   C39       1.0  0.15906  0.80275  0.27632  1.0000
  C  Sn14      1.0  0.19000  0.84531  0.22889  1.0000
  C  Sn15      1.0  0.16462  0.89901  0.23797  1.0000
  C   C40       1.0  0.10881  0.90900  0.29424  1.0000
  C  Sn16      1.0  0.07783  0.86646  0.34167  1.0000
  O  Te13      1.0  0.07309  0.76960  0.37936  1.0000
  O  Te14      1.0  0.24575  0.83429  0.17300  1.0000
  O  Te15      1.0  0.19479  0.94218  0.19113  1.0000
  O  Te16      1.0  0.02213  0.87746  0.39755  1.0000
  Mg  Mg7       1.0  0.26949  0.90667  0.12331  1.0000
  Mg  Mg8       1.0  0.99839  0.80512  0.44734  1.0000
  C  Sn17      1.0  0.32553  0.60668  0.30232  1.0000
  C   C41       1.0  0.37148  0.59423  0.23114  1.0000
  C  Sn18      1.0  0.38916  0.63427  0.16024  1.0000
  C  Sn19      1.0  0.36037  0.68788  0.16055  1.0000
  C   C42       1.0  0.31446  0.70031  0.23172  1.0000
  C  Sn20      1.0  0.29673  0.66029  0.30263  1.0000
  O  Te17      1.0  0.30858  0.56601  0.37250  1.0000
  O  Te18      1.0  0.43519  0.62085  0.08978  1.0000
  O  Te19      1.0  0.37735  0.72856  0.09029  1.0000
  O  Te20      1.0  0.25075  0.67370  0.37307  1.0000
  Mg  Mg9       1.0  0.44237  0.69033  0.00952  1.0000
  Mg  Mg10      1.0  0.24358  0.60425  0.45342  1.0000
  C  Sn21      1.0  0.30341  0.36520  0.29522  1.0000
  C   C43       1.0  0.28899  0.32066  0.21097  1.0000
  C  Sn22      1.0  0.33941  0.31350  0.14444  1.0000
  C  Sn23      1.0  0.40567  0.35162  0.16256  1.0000
  C   C44       1.0  0.42008  0.39612  0.24677  1.0000
  C  Sn24      1.0  0.36967  0.40333  0.31333  1.0000
  O  Te21      1.0  0.25222  0.37156  0.36073  1.0000
  O  Te22      1.0  0.32375  0.26866  0.06070  1.0000
  O  Te23      1.0  0.45687  0.34523  0.09695  1.0000
  O  Te24      1.0  0.38531  0.44813  0.39705  1.0000
  Mg  Mg11      1.0  0.71638  0.28006  0.99337  1.0000
  Mg  Mg12      1.0  0.29843  0.43919  0.46448  1.0000
  C  Sn25      1.0  0.83886  0.14940  0.33625  1.0000
  C   C45       1.0  0.82399  0.19334  0.25129  1.0000
  C  Sn26      1.0  0.83927  0.18889  0.14043  1.0000
  C  Sn27      1.0  0.87000  0.13949  0.11387  1.0000
  C   C46       1.0  0.88484  0.09558  0.19879  1.0000
  C  Sn28      1.0  0.86959  0.09999  0.30969  1.0000
  O  Te25      1.0  0.82314  0.15475  0.44649  1.0000
  O  Te26      1.0  0.82395  0.23339  0.05696  1.0000
  O  Te27      1.0  0.88572  0.13417  0.00352  1.0000
  O  Te28      1.0  0.88488  0.05553  0.39312  1.0000
  Mg  Mg13      1.0  0.16071  0.20861  0.91923  1.0000
  Mg  Mg14      1.0  0.85377  0.08269  0.53083  1.0000
  C  Sn29      1.0  0.86572  0.85452  0.10795  1.0000
  C   C47       1.0  0.87986  0.89903  0.19219  1.0000
  C  Sn30      1.0  0.86050  0.89593  0.29923  1.0000
  C  Sn31      1.0  0.82636  0.84732  0.32262  1.0000
  C   C48       1.0  0.81225  0.80285  0.23843  1.0000
  C  Sn32      1.0  0.83157  0.80591  0.13134  1.0000
  O  Te29      1.0  0.88554  0.85853  0.00155  1.0000
  O  Te30      1.0  0.87517  0.94097  0.38206  1.0000
  O  Te31      1.0  0.80654  0.84334  0.42913  1.0000
  O  Te32      1.0  0.81694  0.76091  0.04857  1.0000
  Mg  Mg15      1.0  0.83792  0.91563  0.51403  1.0000
  Mg  Mg16      1.0  0.15987  0.78862  0.91661  1.0000
  C  Sn33      1.0  0.67075  0.60430  0.73457  1.0000
  C   C49       1.0  0.61702  0.59533  0.79491  1.0000
  C  Sn34      1.0  0.59130  0.63837  0.84902  1.0000
  C  Sn35      1.0  0.61983  0.69150  0.84263  1.0000
  C   C50       1.0  0.67352  0.70045  0.78230  1.0000
  C  Sn36      1.0  0.69928  0.65742  0.72818  1.0000
  O  Te33      1.0  0.69566  0.56066  0.68112  1.0000
  O  Te34      1.0  0.53758  0.62840  0.90888  1.0000
  O  Te35      1.0  0.59488  0.73515  0.89615  1.0000
  O  Te36      1.0  0.75295  0.66737  0.66833  1.0000
  Mg  Mg17      1.0  0.52117  0.70108  0.96736  1.0000
  Mg  Mg18      1.0  0.76937  0.59473  0.60976  1.0000
  C  Sn37      1.0  0.60081  0.31104  0.82940  1.0000
  C   C51       1.0  0.65535  0.30128  0.77072  1.0000
  C  Sn38      1.0  0.68595  0.34406  0.72347  1.0000
  C  Sn39      1.0  0.66157  0.39773  0.73519  1.0000
  C   C52       1.0  0.60707  0.40747  0.79386  1.0000
  C  Sn40      1.0  0.57643  0.36470  0.84112  1.0000
  O  Te37      1.0  0.57100  0.26765  0.87596  1.0000
  O  Te38      1.0  0.74039  0.33330  0.66513  1.0000
  O  Te39      1.0  0.69143  0.44113  0.68857  1.0000
  O  Te40      1.0  0.52204  0.37545  0.89945  1.0000
  Mg  Mg19      1.0  0.76420  0.40593  0.61682  1.0000
  Mg  Mg20      1.0  0.49823  0.30286  0.94785  1.0000
  C  Sn41      1.0  0.14425  0.17446  0.88374  1.0000
  C   C53       1.0  0.18403  0.18769  0.80428  1.0000
  C  Sn42      1.0  0.16458  0.15821  0.68792  1.0000
  C  Sn43      1.0  0.10406  0.11462  0.65014  1.0000
  C   C54       1.0  0.06431  0.10141  0.72956  1.0000
  C  Sn44      1.0  0.08374  0.13087  0.84596  1.0000
  O  Te41      1.0  0.16467  0.20448  0.99965  1.0000
  O  Te42      1.0  0.20520  0.17218  0.61012  1.0000
  O  Te43      1.0  0.08367  0.08459  0.53413  1.0000
  O  Te44      1.0  0.04314  0.11692  0.92372  1.0000
  Mg  Mg21      1.0  0.15596  0.11919  0.46112  1.0000
  Mg  Mg22      1.0  0.78663  0.16746  0.07270  1.0000
  C  Sn45      1.0  0.11831  0.85182  0.88675  1.0000
  C   C55       1.0  0.10932  0.89870  0.81319  1.0000
  C  Sn46      1.0  0.13081  0.89855  0.70811  1.0000
  C  Sn47      1.0  0.16191  0.85053  0.67582  1.0000
  C   C56       1.0  0.17088  0.80368  0.74934  1.0000
  C  Sn48      1.0  0.14941  0.80380  0.85446  1.0000
  O  Te45      1.0  0.09643  0.85289  0.99139  1.0000
  O  Te46      1.0  0.12130  0.94592  0.63604  1.0000
  O  Te47      1.0  0.18380  0.84948  0.57109  1.0000
  O  Te48      1.0  0.15889  0.75646  0.92649  1.0000
  Mg  Mg23      1.0  0.15961  0.92420  0.50229  1.0000
  Mg  Mg24      1.0  0.81489  0.77569  0.06021  1.0000
  C  Sn49      1.0  0.32016  0.60691  0.79010  1.0000
  C   C57       1.0  0.37085  0.59446  0.72639  1.0000
  C  Sn50      1.0  0.39561  0.63494  0.66485  1.0000
  C  Sn51      1.0  0.36919  0.68899  0.66711  1.0000
  C   C58       1.0  0.31854  0.70142  0.73081  1.0000
  C  Sn52      1.0  0.29374  0.66096  0.79236  1.0000
  O  Te49      1.0  0.29617  0.56579  0.85098  1.0000
  O  Te50      1.0  0.44628  0.62151  0.60173  1.0000
  O  Te51      1.0  0.39323  0.73011  0.60615  1.0000
  O  Te52      1.0  0.24312  0.67437  0.85547  1.0000
  Mg  Mg25      1.0  0.46254  0.69169  0.53297  1.0000
  Mg  Mg26      1.0  0.22685  0.60423  0.92432  1.0000
  C  Sn53      1.0  0.38380  0.31146  0.66922  1.0000
  C   C59       1.0  0.33146  0.29973  0.73048  1.0000
  C  Sn54      1.0  0.30555  0.34082  0.78965  1.0000
  C  Sn55      1.0  0.33247  0.39477  0.78747  1.0000
  C   C60       1.0  0.38476  0.40647  0.72622  1.0000
  C  Sn56      1.0  0.41072  0.36540  0.66704  1.0000
  O  Te53      1.0  0.40893  0.26974  0.61069  1.0000
  O  Te54      1.0  0.25324  0.32810  0.85033  1.0000
  O  Te55      1.0  0.30730  0.43649  0.84607  1.0000
  O  Te56      1.0  0.46299  0.37810  0.60637  1.0000
  Mg  Mg27      1.0  0.23589  0.39893  0.91644  1.0000
  Mg  Mg28      1.0  0.48034  0.30731  0.54017  1.0000
  C  Sn57      1.0  0.81503  0.10517  0.78394  1.0000
  C   C61       1.0  0.86392  0.09308  0.71713  1.0000
  C  Sn58      1.0  0.88648  0.13374  0.65331  1.0000
  C  Sn59      1.0  0.85965  0.18763  0.65639  1.0000
  C   C62       1.0  0.81079  0.19970  0.72319  1.0000
  C  Sn60      1.0  0.78819  0.15906  0.78703  1.0000
  O  Te57      1.0  0.79322  0.06388  0.84706  1.0000
  O  Te58      1.0  0.93538  0.12066  0.58712  1.0000
  O  Te59      1.0  0.88149  0.22892  0.59319  1.0000
  O  Te60      1.0  0.73934  0.17212  0.85321  1.0000
  Mg  Mg29      1.0  0.94896  0.19097  0.51613  1.0000
  Mg  Mg30      1.0  0.72576  0.10185  0.92428  1.0000
  C  Sn61      1.0  0.87206  0.81333  0.65526  1.0000
  C   C63       1.0  0.82618  0.80100  0.72644  1.0000
  C  Sn62      1.0  0.81024  0.84096  0.80014  1.0000
  C  Sn63      1.0  0.84075  0.89436  0.80269  1.0000
  C   C64       1.0  0.88659  0.90667  0.73153  1.0000
  C  Sn64      1.0  0.90258  0.86673  0.65782  1.0000
  O  Te61      1.0  0.88725  0.77275  0.58225  1.0000
  O  Te62      1.0  0.76424  0.82766  0.87053  1.0000
  O  Te63      1.0  0.82553  0.93495  0.87579  1.0000
  O  Te64      1.0  0.94853  0.88002  0.58744  1.0000
  Mg  Mg31      1.0  0.75981  0.89696  0.95526  1.0000
  Mg  Mg32      1.0  0.95296  0.81076  0.50263  1.0000
