data_image0
_chemical_formula_structural       H72C120N12C2Sn2C2HTe2HMgC2Sn2C2HTe2HMgC2Sn2C2HTe2HMgC2Sn2C2HTe2HMgC2Sn2C2HTe2HMgC2Sn2C2HTe2HMgC2Sn2C2HTe2HMgC2Sn2C2HTe2HMgC2Sn2C2HTe2HMgC2Sn2C2HTe2HMgC2Sn2C2HTe2HMgC2Sn2C2HTe2HMg
_chemical_formula_sum              "H96 C168 N12 Sn24 Te24 Mg12"
_cell_length_a       30.1108
_cell_length_b       30.0991
_cell_length_c       9.72236
_cell_angle_alpha    89.7471
_cell_angle_beta     90.8128
_cell_angle_gamma    120.121

_symmetry_space_group_name_H-M    'P1'
_space_group_IT_number       1

loop_
  _space_group_symop_operation_xyz
  'x, y, z'

loop_
  _atom_site_type_symbol
  _atom_site_label
  _atom_site_symmetry_multiplicity
  _atom_site_fract_x
  _atom_site_fract_y
  _atom_site_fract_z
  _atom_site_occupancy
  H   H1        1.0  0.41989  0.00407  0.27509  1.0000
  H   H2        1.0  0.99888  0.41484  0.24634  1.0000
  H   H3        1.0  0.58476  0.58311  0.25677  1.0000
  H   H4        1.0  0.57863  0.99709  0.22623  1.0000
  H   H5        1.0  0.00261  0.57982  0.21686  1.0000
  H   H6        1.0  0.42010  0.42099  0.22607  1.0000
  H   H7        1.0  0.63050  0.05875  0.39897  1.0000
  H   H8        1.0  0.42933  0.37176  0.38926  1.0000
  H   H9        1.0  0.71967  0.13286  0.39720  1.0000
  H   H10       1.0  0.41542  0.28351  0.39655  1.0000
  H   H11       1.0  0.67194  0.21184  0.11558  1.0000
  H   H12       1.0  0.54942  0.33182  0.15043  1.0000
  H   H13       1.0  0.58277  0.13824  0.12048  1.0000
  H   H14       1.0  0.56204  0.41943  0.13788  1.0000
  H   H15       1.0  0.07093  0.44185  0.40683  1.0000
  H   H16       1.0  0.15039  0.43640  0.41915  1.0000
  H   H17       1.0  0.20912  0.53494  0.06701  1.0000
  H   H18       1.0  0.13015  0.54160  0.05623  1.0000
  H   H19       1.0  0.44522  0.86252  0.37967  1.0000
  H   H20       1.0  0.14048  0.58057  0.36109  1.0000
  H   H21       1.0  0.45005  0.78350  0.35167  1.0000
  H   H22       1.0  0.21866  0.66558  0.33730  1.0000
  H   H23       1.0  0.55318  0.85248  0.01421  1.0000
  H   H24       1.0  0.14309  0.70624  0.02423  1.0000
  H   H25       1.0  0.55010  0.93263  0.04558  1.0000
  H   H26       1.0  0.06444  0.62129  0.04956  1.0000
  H   H27       1.0  0.73636  0.26236  0.38610  1.0000
  H   H28       1.0  0.74260  0.47928  0.39744  1.0000
  H   H29       1.0  0.54006  0.27174  0.38576  1.0000
  H   H30       1.0  0.23889  0.46935  0.35432  1.0000
  H   H31       1.0  0.52812  0.76648  0.36085  1.0000
  H   H32       1.0  0.23317  0.76283  0.36373  1.0000
  H   H33       1.0  0.42059  0.00426  0.76546  1.0000
  H   H34       1.0  0.99660  0.41841  0.76354  1.0000
  H   H35       1.0  0.58172  0.57929  0.77143  1.0000
  H   H36       1.0  0.57913  0.99664  0.72635  1.0000
  H   H37       1.0  0.00174  0.58315  0.70482  1.0000
  H   H38       1.0  0.41581  0.41901  0.72392  1.0000
  H   H39       1.0  0.63152  0.05650  0.89177  1.0000
  H   H40       1.0  0.94080  0.57367  0.87320  1.0000
  H   H41       1.0  0.43201  0.37097  0.91135  1.0000
  H   H42       1.0  0.72069  0.13036  0.89321  1.0000
  H   H43       1.0  0.86560  0.58652  0.87224  1.0000
  H   H44       1.0  0.41950  0.28296  0.91842  1.0000
  H   H45       1.0  0.67274  0.21426  0.63113  1.0000
  H   H46       1.0  0.78469  0.45677  0.60184  1.0000
  H   H47       1.0  0.53598  0.32601  0.61281  1.0000
  H   H48       1.0  0.58400  0.14036  0.62807  1.0000
  H   H49       1.0  0.85980  0.44459  0.60039  1.0000
  H   H50       1.0  0.54827  0.41361  0.60650  1.0000
  H   H51       1.0  0.37260  0.93489  0.91037  1.0000
  H   H52       1.0  0.55455  0.62589  0.92269  1.0000
  H   H53       1.0  0.28661  0.85683  0.91854  1.0000
  H   H54       1.0  0.55883  0.71015  0.92905  1.0000
  H   H55       1.0  0.32633  0.79168  0.58230  1.0000
  H   H56       1.0  0.46289  0.66956  0.56607  1.0000
  H   H57       1.0  0.41291  0.86976  0.57511  1.0000
  H   H58       1.0  0.45729  0.58449  0.56225  1.0000
  H   H59       1.0  0.56028  0.12741  0.93791  1.0000
  H   H60       1.0  0.55945  0.20884  0.96619  1.0000
  H   H61       1.0  0.44161  0.16029  0.65396  1.0000
  H   H62       1.0  0.44284  0.07873  0.62476  1.0000
  H   H63       1.0  0.41588  0.55326  0.87463  1.0000
  H   H64       1.0  0.33206  0.54894  0.84508  1.0000
  H   H65       1.0  0.29385  0.44194  0.51120  1.0000
  H   H66       1.0  0.37723  0.44514  0.54376  1.0000
  H   H67       1.0  0.73043  0.26600  0.85956  1.0000
  H   H68       1.0  0.73703  0.46936  0.87333  1.0000
  H   H69       1.0  0.53445  0.26895  0.88543  1.0000
  H   H70       1.0  0.23665  0.47142  0.85412  1.0000
  H   H71       1.0  0.52529  0.76416  0.86009  1.0000
  H   H72       1.0  0.23007  0.76614  0.85712  1.0000
  C   C1        1.0  0.54790  0.04683  0.25462  1.0000
  C   C2        1.0  0.95382  0.49842  0.23844  1.0000
  C   C3        1.0  0.50155  0.45403  0.25192  1.0000
  C   C4        1.0  0.50210  0.04894  0.26804  1.0000
  C   C5        1.0  0.95323  0.45102  0.24620  1.0000
  C   C6        1.0  0.54901  0.50108  0.25884  1.0000
  C   C7        1.0  0.45504  0.00256  0.26423  1.0000
  C   C8        1.0  0.99992  0.45147  0.24027  1.0000
  C   C9        1.0  0.54826  0.54725  0.25071  1.0000
  C   C10       1.0  0.45082  0.95425  0.24775  1.0000
  C   C11       1.0  0.04776  0.49651  0.22908  1.0000
  C   C12       1.0  0.50302  0.54970  0.23761  1.0000
  C   C13       1.0  0.49657  0.95216  0.23345  1.0000
  C   C14       1.0  0.04865  0.54405  0.22010  1.0000
  C   C15       1.0  0.45572  0.50280  0.22765  1.0000
  C   C16       1.0  0.54348  0.99856  0.23713  1.0000
  C   C17       1.0  0.00168  0.54328  0.22440  1.0000
  C   C18       1.0  0.45660  0.45675  0.23416  1.0000
  C   C19       1.0  0.60028  0.09239  0.25647  1.0000
  C   C20       1.0  0.49622  0.40238  0.26065  1.0000
  C   C21       1.0  0.49790  0.90394  0.21641  1.0000
  C   C22       1.0  0.09628  0.59454  0.20794  1.0000
  C   C23       1.0  0.09455  0.49190  0.22993  1.0000
  C   C24       1.0  0.63971  0.09188  0.33464  1.0000
  C   C25       1.0  0.45506  0.36291  0.33357  1.0000
  C   C26       1.0  0.68975  0.13345  0.33466  1.0000
  C   C27       1.0  0.44713  0.31324  0.33873  1.0000
  C   C28       1.0  0.70164  0.17733  0.25665  1.0000
  C   C29       1.0  0.48160  0.30158  0.27441  1.0000
  C   C30       1.0  0.66250  0.17832  0.17840  1.0000
  C   C31       1.0  0.52328  0.34085  0.20302  1.0000
  C   C32       1.0  0.61278  0.13656  0.17925  1.0000
  C   C33       1.0  0.53001  0.39006  0.19533  1.0000
  C   C34       1.0  0.10052  0.46132  0.33014  1.0000
  C   C35       1.0  0.14521  0.45841  0.33769  1.0000
  C   C36       1.0  0.18471  0.48485  0.24285  1.0000
  C   C37       1.0  0.17853  0.51465  0.14062  1.0000
  C   C38       1.0  0.13432  0.51816  0.13489  1.0000
  C   C39       1.0  0.46941  0.86090  0.30032  1.0000
  C   C40       1.0  0.14060  0.60793  0.28758  1.0000
  C   C41       1.0  0.47199  0.81631  0.28498  1.0000
  C   C42       1.0  0.18465  0.65585  0.27504  1.0000
  C   C43       1.0  0.50272  0.81300  0.18232  1.0000
  C   C44       1.0  0.18597  0.69212  0.18069  1.0000
  C   C45       1.0  0.53065  0.85551  0.09617  1.0000
  C   C46       1.0  0.14200  0.67892  0.09959  1.0000
  C   C47       1.0  0.52890  0.90042  0.11479  1.0000
  C   C48       1.0  0.09786  0.63127  0.11474  1.0000
  C   C49       1.0  0.76379  0.26040  0.31625  1.0000
  C   C50       1.0  0.74094  0.50250  0.31179  1.0000
  C   C51       1.0  0.50663  0.24191  0.32830  1.0000
  C   C52       1.0  0.23145  0.48172  0.25409  1.0000
  C   C53       1.0  0.51534  0.74714  0.26031  1.0000
  C   C54       1.0  0.25175  0.77052  0.26278  1.0000
  C   C55       1.0  0.54860  0.04669  0.75314  1.0000
  C   C56       1.0  0.95243  0.50237  0.73560  1.0000
  C   C57       1.0  0.49679  0.45082  0.75255  1.0000
  C   C58       1.0  0.50266  0.04879  0.76309  1.0000
  C   C59       1.0  0.95106  0.45475  0.75216  1.0000
  C   C60       1.0  0.54479  0.49703  0.76486  1.0000
  C   C61       1.0  0.45568  0.00249  0.75797  1.0000
  C   C62       1.0  0.99773  0.45487  0.75047  1.0000
  C   C63       1.0  0.54503  0.54381  0.76095  1.0000
  C   C64       1.0  0.45124  0.95403  0.74365  1.0000
  C   C65       1.0  0.04577  0.49921  0.73408  1.0000
  C   C66       1.0  0.50057  0.54738  0.74393  1.0000
  C   C67       1.0  0.49706  0.95188  0.73121  1.0000
  C   C68       1.0  0.04715  0.54674  0.71742  1.0000
  C   C69       1.0  0.45269  0.50119  0.72922  1.0000
  C   C70       1.0  0.54401  0.99826  0.73607  1.0000
  C   C71       1.0  0.00051  0.54662  0.71795  1.0000
  C   C72       1.0  0.45248  0.45450  0.73430  1.0000
  C   C73       1.0  0.60102  0.09224  0.75707  1.0000
  C   C74       1.0  0.90651  0.50853  0.73526  1.0000
  C   C75       1.0  0.49059  0.39873  0.75679  1.0000
  C   C76       1.0  0.50146  0.09706  0.78110  1.0000
  C   C77       1.0  0.40277  0.49930  0.71236  1.0000
  C   C78       1.0  0.39920  0.90801  0.74234  1.0000
  C   C79       1.0  0.50546  0.59891  0.74195  1.0000
  C   C80       1.0  0.64064  0.09055  0.83166  1.0000
  C   C81       1.0  0.90703  0.54854  0.81117  1.0000
  C   C82       1.0  0.45423  0.36093  0.84402  1.0000
  C   C83       1.0  0.69071  0.13193  0.83351  1.0000
  C   C84       1.0  0.86479  0.55577  0.81201  1.0000
  C   C85       1.0  0.44722  0.31149  0.84891  1.0000
  C   C86       1.0  0.70268  0.17746  0.76335  1.0000
  C   C87       1.0  0.81978  0.52208  0.73865  1.0000
  C   C88       1.0  0.47724  0.29865  0.76696  1.0000
  C   C89       1.0  0.66338  0.17967  0.68890  1.0000
  C   C90       1.0  0.81896  0.48225  0.66153  1.0000
  C   C91       1.0  0.51362  0.33616  0.67916  1.0000
  C   C92       1.0  0.61369  0.13770  0.68576  1.0000
  C   C93       1.0  0.86166  0.47594  0.65979  1.0000
  C   C94       1.0  0.51988  0.38517  0.67453  1.0000
  C   C95       1.0  0.36232  0.90407  0.83654  1.0000
  C   C96       1.0  0.53524  0.63563  0.84281  1.0000
  C   C97       1.0  0.31401  0.86011  0.84157  1.0000
  C   C98       1.0  0.53742  0.68293  0.84695  1.0000
  C   C99       1.0  0.30067  0.81907  0.75040  1.0000
  C   C100      1.0  0.51115  0.69566  0.74811  1.0000
  C   C101      1.0  0.33692  0.82335  0.65351  1.0000
  C   C102      1.0  0.48277  0.65972  0.64396  1.0000
  C   C103      1.0  0.38520  0.86696  0.64995  1.0000
  C   C104      1.0  0.47991  0.61226  0.64177  1.0000
  C   C105      1.0  0.53402  0.13448  0.87694  1.0000
  C   C106      1.0  0.53380  0.18029  0.89150  1.0000
  C   C107      1.0  0.50033  0.18994  0.81132  1.0000
  C   C108      1.0  0.46684  0.15222  0.71707  1.0000
  C   C109      1.0  0.46743  0.10659  0.70219  1.0000
  C   C110      1.0  0.38915  0.52856  0.79545  1.0000
  C   C111      1.0  0.34199  0.52615  0.77933  1.0000
  C   C112      1.0  0.30682  0.49456  0.67691  1.0000
  C   C113      1.0  0.32027  0.46541  0.59262  1.0000
  C   C114      1.0  0.36705  0.46721  0.61170  1.0000
  C   C115      1.0  0.76138  0.26259  0.81074  1.0000
  C   C116      1.0  0.73729  0.49903  0.80611  1.0000
  C   C117      1.0  0.50241  0.23935  0.82352  1.0000
  C   C118      1.0  0.22917  0.48334  0.75330  1.0000
  C   C119      1.0  0.51337  0.74516  0.75896  1.0000
  C   C120      1.0  0.25042  0.77254  0.75939  1.0000
  N   N1        1.0  0.75204  0.21888  0.25006  1.0000
  N   N2        1.0  0.77778  0.52419  0.22558  1.0000
  N   N3        1.0  0.47278  0.25124  0.27449  1.0000
  N   N4        1.0  0.26250  0.49279  0.15257  1.0000
  N   N5        1.0  0.50371  0.76751  0.15897  1.0000
  N   N6        1.0  0.23093  0.73938  0.16008  1.0000
  N   N7        1.0  0.75318  0.21902  0.76394  1.0000
  N   N8        1.0  0.77724  0.52947  0.73623  1.0000
  N   N9        1.0  0.46929  0.24853  0.76453  1.0000
  N   N10       1.0  0.26032  0.49375  0.65226  1.0000
  N   N11       1.0  0.50263  0.76616  0.65732  1.0000
  N   N12       1.0  0.23097  0.74041  0.65821  1.0000
  C   C121      1.0  0.13058  0.45684  0.85383  1.0000
  C   C122      1.0  0.17173  0.47691  0.76313  1.0000
  C  Sn1       1.0  0.17375  0.50841  0.65455  1.0000
  C  Sn2       1.0  0.13379  0.51998  0.63674  1.0000
  C   C123      1.0  0.09280  0.49974  0.72810  1.0000
  C   C124      1.0  0.09115  0.46824  0.83637  1.0000
  H   H73       1.0  0.12931  0.43250  0.93765  1.0000
  O  Te1       1.0  0.21513  0.52813  0.56485  1.0000
  O  Te2       1.0  0.13486  0.55138  0.52914  1.0000
  H   H74       1.0  0.05931  0.45274  0.90664  1.0000
  Mg  Mg1       1.0  0.19933  0.56905  0.43382  1.0000
  C   C125      1.0  0.46822  0.82362  0.80689  1.0000
  C   C126      1.0  0.49216  0.81080  0.70501  1.0000
  C  Sn3       1.0  0.52244  0.84705  0.60673  1.0000
  C  Sn4       1.0  0.52881  0.89704  0.61080  1.0000
  C   C127      1.0  0.50472  0.90950  0.71320  1.0000
  C   C128      1.0  0.47449  0.87292  0.81102  1.0000
  H   H75       1.0  0.44485  0.79533  0.88263  1.0000
  O  Te3       1.0  0.54608  0.83359  0.50561  1.0000
  O  Te4       1.0  0.55887  0.93402  0.51386  1.0000
  H   H76       1.0  0.45598  0.88287  0.88994  1.0000
  Mg  Mg2       1.0  0.58326  0.89729  0.39615  1.0000
  C   C129      1.0  0.17261  0.64869  0.80786  1.0000
  C   C130      1.0  0.18642  0.68505  0.70314  1.0000
  C  Sn5       1.0  0.15184  0.67750  0.59614  1.0000
  C  Sn6       1.0  0.10254  0.63268  0.59424  1.0000
  C   C131      1.0  0.08908  0.59655  0.69953  1.0000
  C   C132      1.0  0.12399  0.60448  0.80610  1.0000
  H   H77       1.0  0.19960  0.65483  0.89036  1.0000
  O  Te5       1.0  0.16626  0.71421  0.49230  1.0000
  O  Te6       1.0  0.06723  0.62418  0.48854  1.0000
  H   H78       1.0  0.11327  0.57633  0.88721  1.0000
  Mg  Mg3       1.0  0.10477  0.68536  0.37026  1.0000
  C   C133      1.0  0.61536  0.47149  0.39889  1.0000
  C   C134      1.0  0.60157  0.49891  0.30848  1.0000
  C  Sn7       1.0  0.63550  0.52987  0.20692  1.0000
  C  Sn8       1.0  0.68409  0.53337  0.19590  1.0000
  C   C135      1.0  0.69750  0.50576  0.28679  1.0000
  C   C136      1.0  0.66327  0.47490  0.38806  1.0000
  H   H79       1.0  0.58886  0.44759  0.47720  1.0000
  O  Te7       1.0  0.62112  0.55702  0.11746  1.0000
  O  Te8       1.0  0.71872  0.56402  0.09531  1.0000
  H   H80       1.0  0.67394  0.45365  0.45799  1.0000
  Mg  Mg4       1.0  0.68671  0.59484  0.99744  1.0000
  C   C137      1.0  0.47294  0.62157  0.13302  1.0000
  C   C138      1.0  0.50029  0.60344  0.20910  1.0000
  C  Sn9       1.0  0.53393  0.63338  0.31456  1.0000
  C  Sn10      1.0  0.54022  0.68235  0.34420  1.0000
  C   C139      1.0  0.51266  0.70012  0.26755  1.0000
  C   C140      1.0  0.47910  0.66985  0.16222  1.0000
  H   H81       1.0  0.44696  0.59815  0.05157  1.0000
  O  Te9       1.0  0.56097  0.61469  0.38953  1.0000
  O  Te10      1.0  0.57358  0.71305  0.44908  1.0000
  H   H82       1.0  0.45791  0.68388  0.10339  1.0000
  Mg  Mg5       1.0  0.60192  0.67077  0.52241  1.0000
  C   C141      1.0  0.84786  0.46340  0.16053  1.0000
  C   C142      1.0  0.89666  0.49505  0.21777  1.0000
  C  Sn11      1.0  0.90686  0.53864  0.29326  1.0000
  C  Sn12      1.0  0.86740  0.55066  0.31165  1.0000
  C   C143      1.0  0.81869  0.51873  0.25406  1.0000
  C   C144      1.0  0.80890  0.47522  0.17866  1.0000
  H   H83       1.0  0.84027  0.42972  0.10226  1.0000
  O  Te11      1.0  0.95584  0.56986  0.34970  1.0000
  O  Te12      1.0  0.87654  0.59398  0.38668  1.0000
  H   H84       1.0  0.77111  0.45070  0.13443  1.0000
  Mg  Mg6       1.0  0.94952  0.62467  0.44355  1.0000
  C   C145      1.0  0.88529  0.34463  0.17210  1.0000
  C   C146      1.0  0.90306  0.39152  0.23989  1.0000
  C  Sn13      1.0  0.87566  0.39537  0.34951  1.0000
  C  Sn14      1.0  0.82962  0.35138  0.39184  1.0000
  C   C147      1.0  0.81218  0.30463  0.32341  1.0000
  C   C148      1.0  0.83989  0.30122  0.21381  1.0000
  H   H85       1.0  0.90674  0.34198  0.08735  1.0000
  O  Te13      1.0  0.89395  0.44251  0.41607  1.0000
  O  Te14      1.0  0.80149  0.35414  0.50112  1.0000
  H   H86       1.0  0.82614  0.26490  0.16141  1.0000
  Mg  Mg7       1.0  0.84207  0.42694  0.55941  1.0000
  C   C149      1.0  0.35823  0.46348  0.08902  1.0000
  C   C150      1.0  0.39780  0.49277  0.18295  1.0000
  C  Sn15      1.0  0.39134  0.52233  0.28246  1.0000
  C  Sn16      1.0  0.34435  0.52248  0.28779  1.0000
  C   C151      1.0  0.30499  0.49302  0.19342  1.0000
  C   C152      1.0  0.31186  0.46359  0.09424  1.0000
  H   H87       1.0  0.36353  0.44068  0.01233  1.0000
  O  Te15      1.0  0.43127  0.55139  0.37550  1.0000
  O  Te16      1.0  0.33687  0.55167  0.38622  1.0000
  H   H88       1.0  0.28120  0.44089  0.02158  1.0000
  Mg  Mg8       1.0  0.40268  0.58493  0.49062  1.0000
  C   C153      1.0  0.37561  0.85567  0.13251  1.0000
  C   C154      1.0  0.39554  0.89955  0.21533  1.0000
  C  Sn17      1.0  0.36737  0.90148  0.32579  1.0000
  C  Sn18      1.0  0.31835  0.85862  0.35362  1.0000
  C   C155      1.0  0.29877  0.81488  0.27021  1.0000
  C   C156      1.0  0.32728  0.81337  0.15992  1.0000
  H   H89       1.0  0.39768  0.85449  0.04721  1.0000
  O  Te17      1.0  0.38785  0.94562  0.40747  1.0000
  O  Te18      1.0  0.28939  0.85950  0.46339  1.0000
  H   H90       1.0  0.31185  0.77938  0.09587  1.0000
  Mg  Mg9       1.0  0.33375  0.92839  0.54519  1.0000
  C   C157      1.0  0.46325  0.14150  0.20661  1.0000
  C   C158      1.0  0.49166  0.18160  0.29936  1.0000
  C  Sn19      1.0  0.52827  0.18017  0.38627  1.0000
  C  Sn20      1.0  0.53652  0.13778  0.37996  1.0000
  C   C159      1.0  0.50793  0.09787  0.28675  1.0000
  C   C160      1.0  0.47138  0.09968  0.20027  1.0000
  H   H91       1.0  0.43499  0.14291  0.13965  1.0000
  O  Te19      1.0  0.55631  0.22055  0.47836  1.0000
  O  Te20      1.0  0.57289  0.13539  0.46561  1.0000
  H   H92       1.0  0.44941  0.06865  0.12841  1.0000
  Mg  Mg10      1.0  0.60151  0.19974  0.57393  1.0000
  C   C161      1.0  0.65164  0.54167  0.69883  1.0000
  C   C162      1.0  0.60444  0.50684  0.75626  1.0000
  C  Sn21      1.0  0.60079  0.46904  0.84694  1.0000
  C  Sn22      1.0  0.64528  0.46616  0.88058  1.0000
  C   C163      1.0  0.69233  0.50122  0.82265  1.0000
  C   C164      1.0  0.69555  0.53888  0.73200  1.0000
  H   H93       1.0  0.65415  0.57083  0.62874  1.0000
  O  Te21      1.0  0.55332  0.43453  0.90335  1.0000
  O  Te22      1.0  0.64272  0.42878  0.97096  1.0000
  H   H94       1.0  0.73211  0.56586  0.68762  1.0000
  Mg  Mg11      1.0  0.56417  0.38925  0.02130  1.0000
  C   C165      1.0  0.86327  0.32110  0.70216  1.0000
  C   C166      1.0  0.82202  0.30878  0.78870  1.0000
  C  Sn23      1.0  0.82072  0.34706  0.86631  1.0000
  C  Sn24      1.0  0.86153  0.39859  0.85687  1.0000
  C   C167      1.0  0.90261  0.41053  0.76992  1.0000
  C   C168      1.0  0.90353  0.37192  0.69274  1.0000
  H   H95       1.0  0.86397  0.29124  0.64239  1.0000
  O  Te23      1.0  0.77922  0.33409  0.95230  1.0000
  O  Te24      1.0  0.86119  0.43761  0.93325  1.0000
  H   H96       1.0  0.93545  0.38148  0.62568  1.0000
  Mg  Mg12      1.0  0.79106  0.39961  0.03591  1.0000
