data_image0
_chemical_formula_structural       H16C32N8C2Sn2C2HTe2HMgC2Sn2C2HTe2HMgC2Sn2C2HTe2HMgC2Sn2C2HTe2HMgC2Sn2C2HTe2HMgC2Sn2C2HTe2HMgC2Sn2C2HTe2HMgC2Sn2C2HTe2HMgC2Sn2C2HTe2HMgC2Sn2C2HTe2HMgC2Sn2C2HTe2HMgC2Sn2C2HTe2HMgC2Sn2C2HTe2HMgC2Sn2C2HTe2HMgC2Sn2C2HTe2HMgC2Sn2C2HTe2HMg
_chemical_formula_sum              "H48 C96 N8 Sn32 Te32 Mg16"
_cell_length_a       17.6594
_cell_length_b       24.3994
_cell_length_c       9.5282
_cell_angle_alpha    76.3063
_cell_angle_beta     97.5666
_cell_angle_gamma    89.8394

_symmetry_space_group_name_H-M    'P1'
_space_group_IT_number       1

loop_
  _space_group_symop_operation_xyz
  'x, y, z'

loop_
  _atom_site_type_symbol
  _atom_site_label
  _atom_site_symmetry_multiplicity
  _atom_site_fract_x
  _atom_site_fract_y
  _atom_site_fract_z
  _atom_site_occupancy
  H   H1        1.0  0.10982  0.77678  0.21420  1.0000
  H   H2        1.0  0.89123  0.27239  0.27464  1.0000
  H   H3        1.0  0.98962  0.99101  0.43840  1.0000
  H   H4        1.0  0.02924  0.51649  0.06807  1.0000
  H   H5        1.0  0.39060  0.76743  0.27373  1.0000
  H   H6        1.0  0.61148  0.26973  0.23442  1.0000
  H   H7        1.0  0.51292  0.55180  0.05913  1.0000
  H   H8        1.0  0.46620  0.02868  0.42566  1.0000
  H   H9        1.0  0.10814  0.77393  0.71338  1.0000
  H   H10       1.0  0.89022  0.27015  0.78437  1.0000
  H   H11       1.0  0.98549  0.98691  0.93737  1.0000
  H   H12       1.0  0.03208  0.51157  0.58110  1.0000
  H   H13       1.0  0.38845  0.76723  0.77523  1.0000
  H   H14       1.0  0.61045  0.26811  0.73508  1.0000
  H   H15       1.0  0.51330  0.55044  0.56547  1.0000
  H   H16       1.0  0.47517  0.02279  0.92915  1.0000
  C   C1        1.0  0.29180  0.82091  0.26197  1.0000
  C   C2        1.0  0.70812  0.32224  0.23736  1.0000
  C   C3        1.0  0.21071  0.82247  0.24824  1.0000
  C   C4        1.0  0.78889  0.32379  0.24481  1.0000
  C   C5        1.0  0.17197  0.77382  0.23193  1.0000
  C   C6        1.0  0.82914  0.27238  0.26108  1.0000
  C   C7        1.0  0.99064  0.02393  0.33745  1.0000
  C   C8        1.0  0.02095  0.53492  0.16004  1.0000
  C   C9        1.0  0.20866  0.72306  0.22832  1.0000
  C   C10       1.0  0.79454  0.22028  0.26892  1.0000
  C   C11       1.0  0.28973  0.72154  0.24173  1.0000
  C   C12       1.0  0.71380  0.21870  0.26194  1.0000
  C   C13       1.0  0.32844  0.77026  0.25753  1.0000
  C   C14       1.0  0.67357  0.27005  0.24638  1.0000
  C   C15       1.0  0.51286  0.51963  0.16177  1.0000
  C   C16       1.0  0.47817  0.00895  0.33788  1.0000
  C   C17       1.0  0.28913  0.82014  0.75940  1.0000
  C   C18       1.0  0.70698  0.32008  0.74258  1.0000
  C   C19       1.0  0.20803  0.82110  0.74537  1.0000
  C   C20       1.0  0.78774  0.32182  0.75193  1.0000
  C   C21       1.0  0.17033  0.77180  0.73105  1.0000
  C   C22       1.0  0.82813  0.27036  0.76917  1.0000
  C   C23       1.0  0.98503  0.02018  0.83698  1.0000
  C   C24       1.0  0.02004  0.53288  0.66568  1.0000
  C   C25       1.0  0.20768  0.72100  0.72963  1.0000
  C   C26       1.0  0.79363  0.21830  0.77592  1.0000
  C   C27       1.0  0.28876  0.71994  0.74398  1.0000
  C   C28       1.0  0.71285  0.21661  0.76553  1.0000
  C   C29       1.0  0.32634  0.76930  0.75785  1.0000
  C   C30       1.0  0.67250  0.26799  0.74961  1.0000
  C   C31       1.0  0.51325  0.51821  0.66772  1.0000
  C   C32       1.0  0.48222  0.00506  0.83548  1.0000
  N   N1        1.0  0.53035  0.02574  0.25579  1.0000
  N   N2        1.0  0.47422  0.52588  0.26380  1.0000
  N   N3        1.0  0.97217  0.51667  0.24893  1.0000
  N   N4        1.0  0.02980  0.01845  0.23558  1.0000
  N   N5        1.0  0.53115  0.02359  0.74662  1.0000
  N   N6        1.0  0.47476  0.52482  0.77016  1.0000
  N   N7        1.0  0.96774  0.51714  0.74855  1.0000
  N   N8        1.0  0.02311  0.01496  0.73276  1.0000
  C   C33       1.0  0.42319  0.88820  0.20743  1.0000
  C   C34       1.0  0.35913  0.86855  0.27344  1.0000
  C  Sn1       1.0  0.32882  0.89789  0.36383  1.0000
  C  Sn2       1.0  0.36340  0.94782  0.38835  1.0000
  C   C35       1.0  0.42744  0.96715  0.32172  1.0000
  C   C36       1.0  0.45731  0.93745  0.23151  1.0000
  H   H17       1.0  0.44628  0.86524  0.13756  1.0000
  O  Te1       1.0  0.26481  0.87766  0.42897  1.0000
  O  Te2       1.0  0.33814  0.97798  0.47816  1.0000
  H   H18       1.0  0.50688  0.95269  0.18034  1.0000
  Mg  Mg1       1.0  0.24614  0.93351  0.54244  1.0000
  C   C37       1.0  0.58443  0.37968  0.31923  1.0000
  C   C38       1.0  0.63886  0.36968  0.23337  1.0000
  C  Sn3       1.0  0.65560  0.41223  0.11616  1.0000
  C  Sn4       1.0  0.61706  0.46573  0.08462  1.0000
  C   C39       1.0  0.56274  0.47532  0.17123  1.0000
  C   C40       1.0  0.54641  0.43244  0.28823  1.0000
  H   H19       1.0  0.57182  0.34652  0.40980  1.0000
  O  Te3       1.0  0.71013  0.40153  0.03146  1.0000
  O  Te4       1.0  0.70412  0.41642  0.96816  1.0000
  H   H20       1.0  0.50430  0.44020  0.35474  1.0000
  Mg  Mg2       1.0  0.78304  0.38135  0.88444  1.0000
  C   C41       1.0  0.06300  0.89936  0.34638  1.0000
  C   C42       1.0  0.06817  0.95580  0.27331  1.0000
  C  Sn5       1.0  0.12199  0.97122  0.17719  1.0000
  C  Sn6       1.0  0.17146  0.92927  0.15397  1.0000
  C   C43       1.0  0.16580  0.87291  0.22752  1.0000
  C   C44       1.0  0.11175  0.85795  0.32350  1.0000
  H   H21       1.0  0.02115  0.88777  0.42059  1.0000
  O  Te5       1.0  0.13028  0.02781  0.10512  1.0000
  O  Te6       1.0  0.22576  0.94351  0.05846  1.0000
  H   H22       1.0  0.10773  0.81424  0.37999  1.0000
  Mg  Mg3       1.0  0.28504  0.93368  0.98572  1.0000
  C   C45       1.0  0.91636  0.38945  0.15542  1.0000
  C   C46       1.0  0.85259  0.37465  0.22709  1.0000
  C  Sn7       1.0  0.82433  0.41024  0.30486  1.0000
  C  Sn8       1.0  0.86069  0.46159  0.31075  1.0000
  C   C47       1.0  0.92442  0.47603  0.23858  1.0000
  C   C48       1.0  0.95224  0.44009  0.16112  1.0000
  H   H23       1.0  0.93786  0.36166  0.09542  1.0000
  O  Te7       1.0  0.76058  0.39480  0.37589  1.0000
  O  Te8       1.0  0.83362  0.49795  0.38764  1.0000
  H   H24       1.0  0.00158  0.45158  0.10556  1.0000
  Mg  Mg4       1.0  0.74503  0.45837  0.46661  1.0000
  C   C49       1.0  0.07518  0.65809  0.27947  1.0000
  C   C50       1.0  0.14519  0.67236  0.22972  1.0000
  C  Sn9       1.0  0.17551  0.64198  0.14160  1.0000
  C  Sn10      1.0  0.13485  0.59650  0.10271  1.0000
  C   C51       1.0  0.06483  0.58258  0.15296  1.0000
  C   C52       1.0  0.03502  0.61325  0.24112  1.0000
  H   H25       1.0  0.05209  0.68183  0.34762  1.0000
  O  Te9       1.0  0.24554  0.65678  0.09289  1.0000
  O  Te10      1.0  0.16382  0.56544  0.01473  1.0000
  H   H26       1.0  0.98079  0.60222  0.27955  1.0000
  Mg  Mg5       1.0  0.33286  0.50919  0.97546  1.0000
  C   C53       1.0  0.87225  0.08097  0.42938  1.0000
  C   C54       1.0  0.92924  0.07274  0.34688  1.0000
  C  Sn11      1.0  0.94661  0.11631  0.23258  1.0000
  C  Sn12      1.0  0.90608  0.16906  0.20057  1.0000
  C   C55       1.0  0.84921  0.17688  0.28382  1.0000
  C   C56       1.0  0.83228  0.13299  0.39792  1.0000
  H   H27       1.0  0.85918  0.04702  0.51771  1.0000
  O  Te11      1.0  0.00369  0.10737  0.15122  1.0000
  O  Te12      1.0  0.92230  0.21334  0.08698  1.0000
  H   H28       1.0  0.78819  0.13938  0.46183  1.0000
  Mg  Mg6       1.0  0.00501  0.18061  0.00728  1.0000
  C   C57       1.0  0.41279  0.66955  0.14434  1.0000
  C   C58       1.0  0.34933  0.67240  0.21613  1.0000
  C  Sn13      1.0  0.32902  0.62505  0.31682  1.0000
  C  Sn14      1.0  0.37319  0.57396  0.34598  1.0000
  C   C59       1.0  0.43661  0.57155  0.27366  1.0000
  C   C60       1.0  0.45641  0.61918  0.17307  1.0000
  H   H29       1.0  0.42814  0.70640  0.06657  1.0000
  O  Te13      1.0  0.26542  0.62863  0.38754  1.0000
  O  Te14      1.0  0.35418  0.52600  0.44614  1.0000
  H   H30       1.0  0.50558  0.61696  0.11758  1.0000
  Mg  Mg7       1.0  0.26243  0.55186  0.51480  1.0000
  C   C61       1.0  0.58594  0.15307  0.34995  1.0000
  C   C62       1.0  0.65463  0.16454  0.29255  1.0000
  C  Sn15      1.0  0.68225  0.12952  0.21260  1.0000
  C  Sn16      1.0  0.64019  0.08219  0.18984  1.0000
  C   C63       1.0  0.57151  0.07111  0.24763  1.0000
  C   C64       1.0  0.54440  0.10642  0.32751  1.0000
  H   H31       1.0  0.56494  0.18040  0.41169  1.0000
  O  Te15      1.0  0.75099  0.14157  0.15606  1.0000
  O  Te16      1.0  0.66647  0.04651  0.11030  1.0000
  H   H32       1.0  0.49120  0.09755  0.37186  1.0000
  Mg  Mg8       1.0  0.76323  0.08048  0.05518  1.0000
  C   C65       1.0  0.45000  0.90725  0.72105  1.0000
  C   C66       1.0  0.44268  0.95029  0.79112  1.0000
  C  Sn17      1.0  0.37948  0.95041  0.86518  1.0000
  C  Sn18      1.0  0.32274  0.90657  0.86900  1.0000
  C   C67       1.0  0.33448  0.86368  0.79865  1.0000
  C   C68       1.0  0.39791  0.86398  0.72482  1.0000
  H   H33       1.0  0.49909  0.90746  0.66399  1.0000
  O  Te17      1.0  0.36914  0.99374  0.93456  1.0000
  O  Te18      1.0  0.25910  0.90565  0.94228  1.0000
  H   H34       1.0  0.40659  0.83064  0.67065  1.0000
  Mg  Mg9       1.0  0.20222  0.06661  0.02019  1.0000
  C   C69       1.0  0.58716  0.37917  0.83079  1.0000
  C   C70       1.0  0.63797  0.36753  0.74002  1.0000
  C  Sn19      1.0  0.65137  0.40856  0.61695  1.0000
  C  Sn20      1.0  0.61313  0.46220  0.58445  1.0000
  C   C71       1.0  0.56245  0.47344  0.67601  1.0000
  C   C72       1.0  0.54944  0.43207  0.79885  1.0000
  H   H35       1.0  0.57713  0.34717  0.92589  1.0000
  O  Te19      1.0  0.70229  0.39623  0.52739  1.0000
  O  Te20      1.0  0.62549  0.50399  0.46218  1.0000
  H   H36       1.0  0.51014  0.44111  0.86917  1.0000
  Mg  Mg10      1.0  0.70016  0.46699  0.37329  1.0000
  C   C73       1.0  0.05657  0.89580  0.83898  1.0000
  C   C74       1.0  0.06532  0.95248  0.76764  1.0000
  C  Sn21      1.0  0.12020  0.96878  0.67419  1.0000
  C  Sn22      1.0  0.16718  0.92748  0.65194  1.0000
  C   C75       1.0  0.16180  0.87088  0.72374  1.0000
  C   C76       1.0  0.10669  0.85503  0.81705  1.0000
  H   H37       1.0  0.01390  0.88352  0.91111  1.0000
  O  Te21      1.0  0.12430  0.02559  0.60383  1.0000
  O  Te22      1.0  0.22255  0.94261  0.55909  1.0000
  H   H38       1.0  0.10290  0.81114  0.87219  1.0000
  Mg  Mg11      1.0  0.20947  0.02536  0.48790  1.0000
  C   C77       1.0  0.94220  0.41139  0.66940  1.0000
  C   C78       1.0  0.93024  0.46001  0.71815  1.0000
  C  Sn23      1.0  0.86737  0.46498  0.78983  1.0000
  C  Sn24      1.0  0.81563  0.42037  0.81301  1.0000
  C   C79       1.0  0.82813  0.37189  0.76392  1.0000
  C   C80       1.0  0.89122  0.36737  0.69227  1.0000
  H   H39       1.0  0.99103  0.40788  0.61404  1.0000
  O  Te23      1.0  0.85624  0.51385  0.83777  1.0000
  O  Te24      1.0  0.75234  0.42422  0.88439  1.0000
  H   H40       1.0  0.90050  0.32970  0.65463  1.0000
  Mg  Mg12      1.0  0.76161  0.49928  0.92947  1.0000
  C   C81       1.0  0.17586  0.62230  0.61355  1.0000
  C   C82       1.0  0.16345  0.66591  0.68098  1.0000
  C  Sn25      1.0  0.10066  0.66548  0.75638  1.0000
  C  Sn26      1.0  0.04945  0.62048  0.76426  1.0000
  C   C83       1.0  0.06240  0.57702  0.69652  1.0000
  C   C84       1.0  0.12540  0.57788  0.62132  1.0000
  H   H41       1.0  0.22462  0.62294  0.55543  1.0000
  O  Te25      1.0  0.08909  0.70940  0.82308  1.0000
  O  Te26      1.0  0.98626  0.61898  0.83895  1.0000
  H   H42       1.0  0.13502  0.54409  0.56920  1.0000
  Mg  Mg13      1.0  0.99479  0.68852  0.91206  1.0000
  C   C85       1.0  0.84417  0.10410  0.92593  1.0000
  C   C86       1.0  0.84371  0.15685  0.82831  1.0000
  C  Sn27      1.0  0.89238  0.16630  0.72131  1.0000
  C  Sn28      1.0  0.94236  0.12203  0.71211  1.0000
  C   C87       1.0  0.94235  0.06940  0.81023  1.0000
  C   C88       1.0  0.89342  0.06041  0.91691  1.0000
  H   H43       1.0  0.73488  0.18972  0.00843  1.0000
  O  Te27      1.0  0.89121  0.21926  0.62467  1.0000
  O  Te28      1.0  0.99158  0.13031  0.60619  1.0000
  H   H44       1.0  0.89376  0.01955  0.99241  1.0000
  Mg  Mg14      1.0  0.96896  0.20991  0.49931  1.0000
  C   C89       1.0  0.35823  0.57645  0.86201  1.0000
  C   C90       1.0  0.41541  0.57182  0.77666  1.0000
  C  Sn29      1.0  0.43620  0.61928  0.67693  1.0000
  C  Sn30      1.0  0.39896  0.67230  0.66267  1.0000
  C   C91       1.0  0.34187  0.67650  0.74863  1.0000
  C   C92       1.0  0.32149  0.62873  0.84805  1.0000
  H   H45       1.0  0.34249  0.53950  0.93899  1.0000
  O  Te29      1.0  0.49342  0.61390  0.59247  1.0000
  O  Te30      1.0  0.41864  0.72042  0.56389  1.0000
  H   H46       1.0  0.27725  0.63234  0.91419  1.0000
  Mg  Mg15      1.0  0.50011  0.69167  0.47308  1.0000
  C   C93       1.0  0.55836  0.12603  0.84002  1.0000
  C   C94       1.0  0.56507  0.08272  0.76869  1.0000
  C  Sn31      1.0  0.62868  0.07873  0.69818  1.0000
  C  Sn32      1.0  0.68657  0.11889  0.69931  1.0000
  C   C95       1.0  0.67935  0.16203  0.77106  1.0000
  C   C96       1.0  0.61545  0.16565  0.84124  1.0000
  H   H47       1.0  0.50894  0.12881  0.89439  1.0000
  O  Te31      1.0  0.63446  0.03521  0.62739  1.0000
  O  Te32      1.0  0.75076  0.11588  0.62974  1.0000
  H   H48       1.0  0.61030  0.19916  0.89654  1.0000
  Mg  Mg16      1.0  0.73272  0.04887  0.54805  1.0000
