data_image0
_chemical_formula_structural       H24C48N12SnCSn2CSnTe4Mg2SnCSn2CSnTe4Mg2SnCSn2CSnTe4Mg2SnCSn2CSnTe4Mg2SnCSn2CSnTe4Mg2SnCSn2CSnTe4Mg2SnCSn2CSnTe4Mg2SnCSn2CSnTe4Mg2SnCSn2CSnTe4Mg2SnCSn2CSnTe4Mg2SnCSn2CSnTe4Mg2SnCSn2CSnTe4Mg2SnCSn2CSnTe4Mg2SnCSn2CSnTe4Mg2SnCSn2CSnTe4Mg2SnCSn2CSnTe4Mg2SnCSn2CSnTe4Mg2SnCSn2CSnTe4Mg2SnCSn2CSnTe4Mg2SnCSn2CSnTe4Mg2SnCSn2CSnTe4Mg2SnCSn2CSnTe4Mg2SnCSn2CSnTe4Mg2SnCSn2CSnTe4Mg2
_chemical_formula_sum              "H24 C96 N12 Sn96 Te96 Mg48"
_cell_length_a       30.1108
_cell_length_b       30.0991
_cell_length_c       9.72236
_cell_angle_alpha    89.7471
_cell_angle_beta     90.8128
_cell_angle_gamma    120.121

_symmetry_space_group_name_H-M    'P1'
_space_group_IT_number       1

loop_
  _space_group_symop_operation_xyz
  'x, y, z'

loop_
  _atom_site_type_symbol
  _atom_site_label
  _atom_site_symmetry_multiplicity
  _atom_site_fract_x
  _atom_site_fract_y
  _atom_site_fract_z
  _atom_site_occupancy
  H   H1        1.0  0.41989  0.00407  0.27509  1.0000
  H   H2        1.0  0.99888  0.41484  0.24634  1.0000
  H   H3        1.0  0.58476  0.58311  0.25677  1.0000
  H   H4        1.0  0.57863  0.99709  0.22623  1.0000
  H   H5        1.0  0.00261  0.57982  0.21686  1.0000
  H   H6        1.0  0.42010  0.42099  0.22607  1.0000
  H   H7        1.0  0.73636  0.26236  0.38610  1.0000
  H   H8        1.0  0.74260  0.47928  0.39744  1.0000
  H   H9        1.0  0.54006  0.27174  0.38576  1.0000
  H   H10       1.0  0.23889  0.46935  0.35432  1.0000
  H   H11       1.0  0.52812  0.76648  0.36085  1.0000
  H   H12       1.0  0.23317  0.76283  0.36373  1.0000
  H   H13       1.0  0.42059  0.00426  0.76546  1.0000
  H   H14       1.0  0.99660  0.41841  0.76354  1.0000
  H   H15       1.0  0.58172  0.57929  0.77143  1.0000
  H   H16       1.0  0.57913  0.99664  0.72635  1.0000
  H   H17       1.0  0.00174  0.58315  0.70482  1.0000
  H   H18       1.0  0.41581  0.41901  0.72392  1.0000
  H   H19       1.0  0.73043  0.26600  0.85956  1.0000
  H   H20       1.0  0.73703  0.46936  0.87333  1.0000
  H   H21       1.0  0.53445  0.26895  0.88543  1.0000
  H   H22       1.0  0.23665  0.47142  0.85412  1.0000
  H   H23       1.0  0.52529  0.76416  0.86009  1.0000
  H   H24       1.0  0.23007  0.76614  0.85712  1.0000
  C   C1        1.0  0.54790  0.04683  0.25462  1.0000
  C   C2        1.0  0.95382  0.49842  0.23844  1.0000
  C   C3        1.0  0.50155  0.45403  0.25192  1.0000
  C   C4        1.0  0.50210  0.04894  0.26804  1.0000
  C   C5        1.0  0.95323  0.45102  0.24620  1.0000
  C   C6        1.0  0.54901  0.50108  0.25884  1.0000
  C   C7        1.0  0.45504  0.00256  0.26423  1.0000
  C   C8        1.0  0.99992  0.45147  0.24027  1.0000
  C   C9        1.0  0.54826  0.54725  0.25071  1.0000
  C   C10       1.0  0.45082  0.95425  0.24775  1.0000
  C   C11       1.0  0.04776  0.49651  0.22908  1.0000
  C   C12       1.0  0.50302  0.54970  0.23761  1.0000
  C   C13       1.0  0.49657  0.95216  0.23345  1.0000
  C   C14       1.0  0.04865  0.54405  0.22010  1.0000
  C   C15       1.0  0.45572  0.50280  0.22765  1.0000
  C   C16       1.0  0.54348  0.99856  0.23713  1.0000
  C   C17       1.0  0.00168  0.54328  0.22440  1.0000
  C   C18       1.0  0.45660  0.45675  0.23416  1.0000
  C   C19       1.0  0.76379  0.26040  0.31625  1.0000
  C   C20       1.0  0.74094  0.50250  0.31179  1.0000
  C   C21       1.0  0.50663  0.24191  0.32830  1.0000
  C   C22       1.0  0.23145  0.48172  0.25409  1.0000
  C   C23       1.0  0.51534  0.74714  0.26031  1.0000
  C   C24       1.0  0.25175  0.77052  0.26278  1.0000
  C   C25       1.0  0.54860  0.04669  0.75314  1.0000
  C   C26       1.0  0.95243  0.50237  0.73560  1.0000
  C   C27       1.0  0.49679  0.45082  0.75255  1.0000
  C   C28       1.0  0.50266  0.04879  0.76309  1.0000
  C   C29       1.0  0.95106  0.45475  0.75216  1.0000
  C   C30       1.0  0.54479  0.49703  0.76486  1.0000
  C   C31       1.0  0.45568  0.00249  0.75797  1.0000
  C   C32       1.0  0.99773  0.45487  0.75047  1.0000
  C   C33       1.0  0.54503  0.54381  0.76095  1.0000
  C   C34       1.0  0.45124  0.95403  0.74365  1.0000
  C   C35       1.0  0.04577  0.49921  0.73408  1.0000
  C   C36       1.0  0.50057  0.54738  0.74393  1.0000
  C   C37       1.0  0.49706  0.95188  0.73121  1.0000
  C   C38       1.0  0.04715  0.54674  0.71742  1.0000
  C   C39       1.0  0.45269  0.50119  0.72922  1.0000
  C   C40       1.0  0.54401  0.99826  0.73607  1.0000
  C   C41       1.0  0.00051  0.54662  0.71795  1.0000
  C   C42       1.0  0.45248  0.45450  0.73430  1.0000
  C   C43       1.0  0.76138  0.26259  0.81074  1.0000
  C   C44       1.0  0.73729  0.49903  0.80611  1.0000
  C   C45       1.0  0.50241  0.23935  0.82352  1.0000
  C   C46       1.0  0.22917  0.48334  0.75330  1.0000
  C   C47       1.0  0.51337  0.74516  0.75896  1.0000
  C   C48       1.0  0.25042  0.77254  0.75939  1.0000
  N   N1        1.0  0.75204  0.21888  0.25006  1.0000
  N   N2        1.0  0.77778  0.52419  0.22558  1.0000
  N   N3        1.0  0.47278  0.25124  0.27449  1.0000
  N   N4        1.0  0.26250  0.49279  0.15257  1.0000
  N   N5        1.0  0.50371  0.76751  0.15897  1.0000
  N   N6        1.0  0.23093  0.73938  0.16008  1.0000
  N   N7        1.0  0.75318  0.21902  0.76394  1.0000
  N   N8        1.0  0.77724  0.52947  0.73623  1.0000
  N   N9        1.0  0.46929  0.24853  0.76453  1.0000
  N   N10       1.0  0.26032  0.49375  0.65226  1.0000
  N   N11       1.0  0.50263  0.76616  0.65732  1.0000
  N   N12       1.0  0.23097  0.74041  0.65821  1.0000
  C  Sn1       1.0  0.64776  0.17783  0.20499  1.0000
  C   C49       1.0  0.69128  0.18245  0.27187  1.0000
  C  Sn2       1.0  0.69070  0.13921  0.32686  1.0000
  C  Sn3       1.0  0.64568  0.09032  0.31469  1.0000
  C   C50       1.0  0.60220  0.08571  0.24783  1.0000
  C  Sn4       1.0  0.60275  0.12894  0.19282  1.0000
  O  Te1       1.0  0.64921  0.22158  0.15078  1.0000
  O  Te2       1.0  0.73467  0.14479  0.39331  1.0000
  O  Te3       1.0  0.64426  0.04656  0.36898  1.0000
  O  Te4       1.0  0.55881  0.12337  0.12639  1.0000
  Mg  Mg1       1.0  0.71382  0.07379  0.45021  1.0000
  Mg  Mg2       1.0  0.57963  0.19434  0.06939  1.0000
  C  Sn5       1.0  0.88133  0.56147  0.28155  1.0000
  C   C51       1.0  0.83363  0.53056  0.21762  1.0000
  C  Sn6       1.0  0.81946  0.48105  0.17324  1.0000
  C  Sn7       1.0  0.85366  0.46202  0.19323  1.0000
  C   C52       1.0  0.90132  0.49291  0.25713  1.0000
  C  Sn8       1.0  0.91553  0.54244  0.30154  1.0000
  O  Te5       1.0  0.89470  0.61084  0.32511  1.0000
  O  Te6       1.0  0.77158  0.45087  0.10955  1.0000
  O  Te7       1.0  0.84026  0.41260  0.14960  1.0000
  O  Te8       1.0  0.96337  0.57260  0.36521  1.0000
  Mg  Mg3       1.0  0.77084  0.38615  0.06820  1.0000
  Mg  Mg4       1.0  0.96415  0.63731  0.40666  1.0000
  C  Sn9       1.0  0.52267  0.37675  0.15669  1.0000
  C   C53       1.0  0.49360  0.39542  0.21833  1.0000
  C  Sn10      1.0  0.45942  0.36771  0.32301  1.0000
  C  Sn11      1.0  0.45421  0.32036  0.36706  1.0000
  C   C54       1.0  0.48327  0.30171  0.30546  1.0000
  C  Sn12      1.0  0.51746  0.32939  0.20075  1.0000
  O  Te9       1.0  0.55661  0.40509  0.05224  1.0000
  O  Te10      1.0  0.43076  0.38715  0.38304  1.0000
  O  Te11      1.0  0.42023  0.29201  0.47161  1.0000
  O  Te12      1.0  0.54611  0.30998  0.14075  1.0000
  Mg  Mg5       1.0  0.38965  0.33448  0.52161  1.0000
  Mg  Mg6       1.0  0.58725  0.36263  0.00223  1.0000
  C  Sn13      1.0  0.35830  0.88654  0.37956  1.0000
  C   C55       1.0  0.39676  0.90029  0.28228  1.0000
  C  Sn14      1.0  0.38577  0.87423  0.15673  1.0000
  C  Sn15      1.0  0.33527  0.83359  0.12776  1.0000
  C   C56       1.0  0.29685  0.81985  0.22498  1.0000
  C  Sn16      1.0  0.30781  0.84589  0.35058  1.0000
  O  Te13      1.0  0.37016  0.91312  0.50439  1.0000
  O  Te14      1.0  0.42485  0.88867  0.06112  1.0000
  O  Te15      1.0  0.32344  0.80700  0.00280  1.0000
  O  Te16      1.0  0.26876  0.83148  0.44614  1.0000
  Mg  Mg7       1.0  0.39489  0.84205  0.90565  1.0000
  Mg  Mg8       1.0  0.30384  0.87926  0.60162  1.0000
  C  Sn17      1.0  0.12789  0.44445  0.31869  1.0000
  C   C57       1.0  0.17121  0.46908  0.23587  1.0000
  C  Sn18      1.0  0.17889  0.51016  0.15234  1.0000
  C  Sn19      1.0  0.14254  0.52700  0.15163  1.0000
  C   C58       1.0  0.09927  0.50238  0.23442  1.0000
  C  Sn20      1.0  0.09154  0.46129  0.31797  1.0000
  O  Te17      1.0  0.12099  0.40346  0.40139  1.0000
  O  Te18      1.0  0.22248  0.53416  0.07040  1.0000
  O  Te19      1.0  0.14948  0.56802  0.06883  1.0000
  O  Te20      1.0  0.04799  0.43730  0.39989  1.0000
  Mg  Mg9       1.0  0.22007  0.58951  0.97534  1.0000
  Mg  Mg10      1.0  0.05554  0.38314  0.49504  1.0000
  C  Sn21      1.0  0.52964  0.64301  0.37008  1.0000
  C   C59       1.0  0.50212  0.60313  0.27606  1.0000
  C  Sn22      1.0  0.48236  0.61196  0.15478  1.0000
  C  Sn23      1.0  0.49029  0.66170  0.12683  1.0000
  C   C60       1.0  0.51780  0.70155  0.22080  1.0000
  C  Sn24      1.0  0.53757  0.69275  0.34213  1.0000
  O  Te21      1.0  0.54906  0.63331  0.49067  1.0000
  O  Te22      1.0  0.45496  0.57147  0.06238  1.0000
  O  Te23      1.0  0.47085  0.67137  0.00613  1.0000
  O  Te24      1.0  0.56497  0.73320  0.43449  1.0000
  Mg  Mg11      1.0  0.44127  0.60498  0.91220  1.0000
  Mg  Mg12      1.0  0.58386  0.70092  0.58465  1.0000
  C  Sn25      1.0  0.47523  0.12241  0.17841  1.0000
  C   C61       1.0  0.50509  0.10579  0.24840  1.0000
  C  Sn26      1.0  0.53214  0.13088  0.36809  1.0000
  C  Sn27      1.0  0.52926  0.17344  0.41894  1.0000
  C   C62       1.0  0.49941  0.19003  0.34898  1.0000
  C  Sn28      1.0  0.47235  0.16498  0.22926  1.0000
  O  Te25      1.0  0.44850  0.09676  0.05895  1.0000
  O  Te26      1.0  0.56176  0.11357  0.43625  1.0000
  O  Te27      1.0  0.55602  0.19909  0.53849  1.0000
  O  Te28      1.0  0.44274  0.18226  0.16113  1.0000
  Mg  Mg13      1.0  0.59115  0.16111  0.59490  1.0000
  Mg  Mg14      1.0  0.41332  0.13473  0.00252  1.0000
  C  Sn29      1.0  0.86886  0.38223  0.40966  1.0000
  C   C63       1.0  0.90573  0.39435  0.30855  1.0000
  C  Sn30      1.0  0.89424  0.36323  0.19214  1.0000
  C  Sn31      1.0  0.84487  0.31908  0.17641  1.0000
  C   C64       1.0  0.80804  0.30699  0.27747  1.0000
  C  Sn32      1.0  0.81949  0.33809  0.39394  1.0000
  O  Te29      1.0  0.88118  0.41390  0.52519  1.0000
  O  Te30      1.0  0.93173  0.37611  0.09246  1.0000
  O  Te31      1.0  0.83257  0.28741  0.06076  1.0000
  O  Te32      1.0  0.78203  0.32523  0.49356  1.0000
  Mg  Mg15      1.0  0.90172  0.32217  0.95330  1.0000
  Mg  Mg16      1.0  0.81716  0.38032  0.63272  1.0000
  C  Sn33      1.0  0.64573  0.52356  0.15621  1.0000
  C   C65       1.0  0.60289  0.49881  0.24065  1.0000
  C  Sn34      1.0  0.60700  0.48064  0.36993  1.0000
  C  Sn35      1.0  0.65493  0.48739  0.41582  1.0000
  C   C66       1.0  0.69774  0.51214  0.33141  1.0000
  C  Sn36      1.0  0.69367  0.53031  0.20210  1.0000
  O  Te33      1.0  0.64074  0.54142  0.02737  1.0000
  O  Te34      1.0  0.56363  0.45600  0.45249  1.0000
  O  Te35      1.0  0.65989  0.46951  0.54478  1.0000
  O  Te36      1.0  0.73700  0.55495  0.11957  1.0000
  Mg  Mg17      1.0  0.58980  0.43844  0.61979  1.0000
  Mg  Mg18      1.0  0.71605  0.57372  0.95230  1.0000
  C  Sn37      1.0  0.45706  0.81862  0.26885  1.0000
  C   C67       1.0  0.48657  0.80932  0.17623  1.0000
  C  Sn38      1.0  0.52684  0.84999  0.10674  1.0000
  C  Sn39      1.0  0.53786  0.90103  0.13038  1.0000
  C   C68       1.0  0.50837  0.91030  0.22296  1.0000
  C  Sn40      1.0  0.46809  0.86965  0.29249  1.0000
  O  Te37      1.0  0.41700  0.77737  0.33718  1.0000
  O  Te38      1.0  0.55579  0.83974  0.01460  1.0000
  O  Te39      1.0  0.57797  0.94228  0.06194  1.0000
  O  Te40      1.0  0.43916  0.87988  0.38460  1.0000
  Mg  Mg19      1.0  0.61160  0.90996  0.94639  1.0000
  Mg  Mg20      1.0  0.38852  0.81087  0.45290  1.0000
  C  Sn41      1.0  0.11061  0.63640  0.07554  1.0000
  C   C69       1.0  0.10204  0.59696  0.16682  1.0000
  C  Sn42      1.0  0.13509  0.60654  0.27919  1.0000
  C  Sn43      1.0  0.17758  0.65659  0.30085  1.0000
  C   C70       1.0  0.18613  0.69600  0.20963  1.0000
  C  Sn44      1.0  0.15310  0.68645  0.09720  1.0000
  O  Te41      1.0  0.08224  0.62712  0.96389  1.0000
  O  Te42      1.0  0.12574  0.56648  0.36901  1.0000
  O  Te43      1.0  0.21113  0.66701  0.41261  1.0000
  O  Te44      1.0  0.16243  0.72647  0.00743  1.0000
  Mg  Mg21      1.0  0.18230  0.59981  0.50627  1.0000
  Mg  Mg22      1.0  0.11105  0.69436  0.87019  1.0000
  C  Sn45      1.0  0.37423  0.51543  0.33014  1.0000
  C   C71       1.0  0.39595  0.49330  0.24885  1.0000
  C  Sn46      1.0  0.37569  0.47407  0.11818  1.0000
  C  Sn47      1.0  0.33284  0.47705  0.06766  1.0000
  C   C72       1.0  0.31115  0.49918  0.14891  1.0000
  C  Sn48      1.0  0.33138  0.51842  0.27962  1.0000
  O  Te45      1.0  0.39511  0.53442  0.46046  1.0000
  O  Te46      1.0  0.39805  0.45209  0.03883  1.0000
  O  Te47      1.0  0.31713  0.45921  0.93723  1.0000
  O  Te48      1.0  0.30905  0.54039  0.35893  1.0000
  Mg  Mg23      1.0  0.36102  0.43279  0.86788  1.0000
  Mg  Mg24      1.0  0.35123  0.56089  0.52986  1.0000
  C  Sn49      1.0  0.64916  0.10326  0.87129  1.0000
  C   C73       1.0  0.60622  0.09855  0.80080  1.0000
  C  Sn50      1.0  0.61212  0.13254  0.69492  1.0000
  C  Sn51      1.0  0.66198  0.17204  0.65867  1.0000
  C   C74       1.0  0.70489  0.17673  0.72912  1.0000
  C  Sn52      1.0  0.69902  0.14276  0.83504  1.0000
  O  Te49      1.0  0.64236  0.06885  0.97679  1.0000
  O  Te50      1.0  0.56862  0.12707  0.62597  1.0000
  O  Te51      1.0  0.66876  0.20646  0.55308  1.0000
  O  Te52      1.0  0.74249  0.14821  0.90395  1.0000
  Mg  Mg25      1.0  0.59768  0.18335  0.48954  1.0000
  Mg  Mg26      1.0  0.70831  0.09077  0.04035  1.0000
  C  Sn53      1.0  0.89420  0.54359  0.85010  1.0000
  C   C75       1.0  0.90015  0.50681  0.77842  1.0000
  C  Sn54      1.0  0.86669  0.47922  0.67012  1.0000
  C  Sn55      1.0  0.82644  0.48861  0.63263  1.0000
  C   C76       1.0  0.82050  0.52538  0.70428  1.0000
  C  Sn56      1.0  0.85395  0.55298  0.81261  1.0000
  O  Te53      1.0  0.92811  0.57071  0.95801  1.0000
  O  Te54      1.0  0.87340  0.44263  0.60002  1.0000
  O  Te55      1.0  0.79252  0.46144  0.52462  1.0000
  O  Te56      1.0  0.84726  0.58955  0.88268  1.0000
  Mg  Mg27      1.0  0.81738  0.41556  0.46029  1.0000
  Mg  Mg28      1.0  0.89810  0.61550  0.02237  1.0000
  C  Sn57      1.0  0.51017  0.37124  0.63831  1.0000
  C   C77       1.0  0.48572  0.39129  0.71672  1.0000
  C  Sn58      1.0  0.45848  0.36554  0.83385  1.0000
  C  Sn59      1.0  0.45563  0.31878  0.87350  1.0000
  C   C78       1.0  0.48007  0.29875  0.79512  1.0000
  C  Sn60      1.0  0.50732  0.32448  0.67795  1.0000
  O  Te57      1.0  0.53720  0.39764  0.52161  1.0000
  O  Te58      1.0  0.43434  0.38633  0.91058  1.0000
  O  Te59      1.0  0.42857  0.29238  0.99030  1.0000
  O  Te60      1.0  0.53145  0.30372  0.60126  1.0000
  Mg  Mg29      1.0  0.39700  0.33497  0.06130  1.0000
  Mg  Mg30      1.0  0.56366  0.35389  0.45058  1.0000
  C  Sn61      1.0  0.35663  0.88978  0.87215  1.0000
  C   C79       1.0  0.39633  0.90095  0.78090  1.0000
  C  Sn62      1.0  0.38668  0.87230  0.66027  1.0000
  C  Sn63      1.0  0.33629  0.83166  0.63016  1.0000
  C   C80       1.0  0.29663  0.82052  0.72136  1.0000
  C  Sn64      1.0  0.30624  0.84914  0.84204  1.0000
  O  Te61      1.0  0.36716  0.91893  0.99214  1.0000
  O  Te62      1.0  0.42699  0.88417  0.57064  1.0000
  O  Te63      1.0  0.32579  0.80251  0.51005  1.0000
  O  Te64      1.0  0.26597  0.83729  0.93162  1.0000
  Mg  Mg31      1.0  0.39343  0.83345  0.42023  1.0000
  Mg  Mg32      1.0  0.29431  0.88684  0.08202  1.0000
  C  Sn65      1.0  0.17453  0.53158  0.65796  1.0000
  C   C81       1.0  0.18623  0.50208  0.74659  1.0000
  C  Sn66      1.0  0.14790  0.46331  0.82571  1.0000
  C  Sn67      1.0  0.09681  0.45379  0.81600  1.0000
  C   C82       1.0  0.08513  0.48326  0.72740  1.0000
  C  Sn68      1.0  0.12344  0.52206  0.64825  1.0000
  O  Te65      1.0  0.21346  0.57015  0.57983  1.0000
  O  Te66      1.0  0.16053  0.43433  0.91361  1.0000
  O  Te67      1.0  0.05787  0.41518  0.89424  1.0000
  O  Te68      1.0  0.11083  0.55101  0.56038  1.0000
  Mg  Mg33      1.0  0.09411  0.38605  0.99899  1.0000
  Mg  Mg34      1.0  0.17720  0.59929  0.47490  1.0000
  C  Sn69      1.0  0.52527  0.64051  0.87558  1.0000
  C   C83       1.0  0.50036  0.60123  0.77841  1.0000
  C  Sn70      1.0  0.48394  0.61081  0.65242  1.0000
  C  Sn71      1.0  0.49261  0.66072  0.62290  1.0000
  C   C84       1.0  0.51751  0.69998  0.72002  1.0000
  C  Sn72      1.0  0.53395  0.69042  0.84605  1.0000
  O  Te69      1.0  0.53620  0.62889  0.00086  1.0000
  O  Te70      1.0  0.45910  0.57091  0.55693  1.0000
  O  Te71      1.0  0.47649  0.67115  0.49750  1.0000
  O  Te72      1.0  0.55877  0.73029  0.94150  1.0000
  Mg  Mg35      1.0  0.44437  0.60419  0.40071  1.0000
  Mg  Mg36      1.0  0.56838  0.69590  0.09772  1.0000
  C  Sn73      1.0  0.45341  0.13473  0.73559  1.0000
  C   C85       1.0  0.48401  0.17594  0.82322  1.0000
  C  Sn74      1.0  0.52824  0.18026  0.88458  1.0000
  C  Sn75      1.0  0.54221  0.14263  0.85774  1.0000
  C   C86       1.0  0.51162  0.10146  0.77015  1.0000
  C  Sn76      1.0  0.46737  0.09710  0.70875  1.0000
  O  Te73      1.0  0.40935  0.13118  0.67536  1.0000
  O  Te74      1.0  0.55821  0.22179  0.97185  1.0000
  O  Te75      1.0  0.58630  0.14621  0.91806  1.0000
  O  Te76      1.0  0.43742  0.05561  0.62151  1.0000
  Mg  Mg37      1.0  0.60951  0.20865  0.02940  1.0000
  Mg  Mg38      1.0  0.38096  0.06755  0.56385  1.0000
  C  Sn77      1.0  0.86817  0.31843  0.74412  1.0000
  C   C87       1.0  0.82509  0.30820  0.82046  1.0000
  C  Sn78      1.0  0.81843  0.34839  0.86617  1.0000
  C  Sn79      1.0  0.85559  0.39988  0.83485  1.0000
  C   C88       1.0  0.89864  0.41009  0.75853  1.0000
  C  Sn80      1.0  0.90534  0.36992  0.71280  1.0000
  O  Te77      1.0  0.87404  0.27766  0.69948  1.0000
  O  Te78      1.0  0.77505  0.33721  0.94237  1.0000
  O  Te79      1.0  0.84969  0.44066  0.87956  1.0000
  O  Te80      1.0  0.94868  0.38108  0.63663  1.0000
  Mg  Mg39      1.0  0.78416  0.40590  0.98013  1.0000
  Mg  Mg40      1.0  0.93960  0.31242  0.59876  1.0000
  C  Sn81      1.0  0.64477  0.52771  0.67103  1.0000
  C   C89       1.0  0.59936  0.49582  0.74071  1.0000
  C  Sn82      1.0  0.59992  0.46843  0.85644  1.0000
  C  Sn83      1.0  0.64684  0.47301  0.90356  1.0000
  C   C90       1.0  0.69222  0.50489  0.83391  1.0000
  C  Sn84      1.0  0.69170  0.53230  0.71815  1.0000
  O  Te81      1.0  0.64332  0.55474  0.55558  1.0000
  O  Te82      1.0  0.55403  0.43678  0.92437  1.0000
  O  Te83      1.0  0.64310  0.44478  0.01911  1.0000
  O  Te84      1.0  0.73755  0.56394  0.65025  1.0000
  Mg  Mg41      1.0  0.57054  0.40659  0.07684  1.0000
  Mg  Mg42      1.0  0.71592  0.59299  0.49782  1.0000
  C  Sn85      1.0  0.51900  0.88603  0.57561  1.0000
  C   C91       1.0  0.49340  0.89736  0.67609  1.0000
  C  Sn86      1.0  0.47456  0.86658  0.79290  1.0000
  C  Sn87      1.0  0.48148  0.82360  0.80968  1.0000
  C   C92       1.0  0.50708  0.81229  0.70926  1.0000
  C  Sn88      1.0  0.52593  0.84305  0.59239  1.0000
  O  Te85      1.0  0.53752  0.91733  0.45967  1.0000
  O  Te86      1.0  0.44908  0.87866  0.89192  1.0000
  O  Te87      1.0  0.46294  0.79229  0.92574  1.0000
  O  Te88      1.0  0.55140  0.83099  0.49342  1.0000
  Mg  Mg43      1.0  0.42565  0.82330  0.03201  1.0000
  Mg  Mg44      1.0  0.56970  0.88517  0.35333  1.0000
  C  Sn89      1.0  0.12811  0.67490  0.59918  1.0000
  C   C93       1.0  0.17260  0.69574  0.68110  1.0000
  C  Sn90      1.0  0.18100  0.66465  0.77240  1.0000
  C  Sn91      1.0  0.14418  0.61161  0.78195  1.0000
  C   C94       1.0  0.09973  0.59079  0.70004  1.0000
  C  Sn92      1.0  0.09129  0.62186  0.60873  1.0000
  O  Te89      1.0  0.12052  0.70670  0.50862  1.0000
  O  Te90      1.0  0.22575  0.68636  0.85328  1.0000
  O  Te91      1.0  0.15181  0.57981  0.87260  1.0000
  O  Te92      1.0  0.04657  0.60017  0.52786  1.0000
  Mg  Mg45      1.0  0.21877  0.62729  0.96111  1.0000
  Mg  Mg46      1.0  0.05353  0.65920  0.41995  1.0000
  C  Sn93      1.0  0.37364  0.51860  0.82630  1.0000
  C   C95       1.0  0.39374  0.49387  0.74910  1.0000
  C  Sn94      1.0  0.37178  0.47179  0.62189  1.0000
  C  Sn95      1.0  0.32886  0.47451  0.57074  1.0000
  C   C96       1.0  0.30879  0.49922  0.64791  1.0000
  C  Sn96      1.0  0.33072  0.52131  0.77515  1.0000
  O  Te93      1.0  0.39621  0.54040  0.95320  1.0000
  O  Te94      1.0  0.39253  0.44727  0.54660  1.0000
  O  Te95      1.0  0.30630  0.45267  0.44374  1.0000
  O  Te96      1.0  0.30999  0.54583  0.85041  1.0000
  Mg  Mg47      1.0  0.34838  0.42345  0.37929  1.0000
  Mg  Mg48      1.0  0.34897  0.56852  0.01769  1.0000
