data_image0
_chemical_formula_structural       H16C32N8C2Sn2C2HTe2HMgC2Sn2C2HTe2HMgC2Sn2C2HTe2HMgC2Sn2C2HTe2HMgC2Sn2C2HTe2HMgC2Sn2C2HTe2HMgC2Sn2C2HTe2HMgC2Sn2C2HTe2HMgC2Sn2C2HTe2HMgC2Sn2C2HTe2HMgC2Sn2C2HTe2HMgC2Sn2C2HTe2HMgC2Sn2C2HTe2HMgC2Sn2C2HTe2HMgC2Sn2C2HTe2HMgC2Sn2C2HTe2HMg
_chemical_formula_sum              "H48 C96 N8 Sn32 Te32 Mg16"
_cell_length_a       17.2894
_cell_length_b       24.7052
_cell_length_c       10.1888
_cell_angle_alpha    89.8727
_cell_angle_beta     105.048
_cell_angle_gamma    90.0281

_symmetry_space_group_name_H-M    'P1'
_space_group_IT_number       1

loop_
  _space_group_symop_operation_xyz
  'x, y, z'

loop_
  _atom_site_type_symbol
  _atom_site_label
  _atom_site_symmetry_multiplicity
  _atom_site_fract_x
  _atom_site_fract_y
  _atom_site_fract_z
  _atom_site_occupancy
  H   H1        1.0  0.72847  0.22900  0.38314  1.0000
  H   H2        1.0  0.28787  0.22389  0.11456  1.0000
  H   H3        1.0  0.26549  0.76952  0.12324  1.0000
  H   H4        1.0  0.73886  0.77007  0.40191  1.0000
  H   H5        1.0  0.35531  0.50048  0.21478  1.0000
  H   H6        1.0  0.64739  0.50248  0.28049  1.0000
  H   H7        1.0  0.85423  0.00105  0.20937  1.0000
  H   H8        1.0  0.14553  0.00136  0.27421  1.0000
  H   H9        1.0  0.71843  0.22460  0.88264  1.0000
  H   H10       1.0  0.25179  0.23568  0.59212  1.0000
  H   H11       1.0  0.29342  0.77765  0.65837  1.0000
  H   H12       1.0  0.73455  0.76727  0.88811  1.0000
  H   H13       1.0  0.35449  0.50054  0.73006  1.0000
  H   H14       1.0  0.64447  0.49685  0.77461  1.0000
  H   H15       1.0  0.85254  0.99745  0.72190  1.0000
  H   H16       1.0  0.14278  0.99982  0.76934  1.0000
  C   C1        1.0  0.54279  0.55176  0.25894  1.0000
  C   C2        1.0  0.45899  0.55117  0.24451  1.0000
  C   C3        1.0  0.45989  0.45094  0.23872  1.0000
  C   C4        1.0  0.54406  0.45174  0.25626  1.0000
  C   C5        1.0  0.72960  0.25556  0.29674  1.0000
  C   C6        1.0  0.27456  0.25384  0.18536  1.0000
  C   C7        1.0  0.26793  0.74463  0.21398  1.0000
  C   C8        1.0  0.73506  0.74547  0.31059  1.0000
  C   C9        1.0  0.04175  0.05132  0.24976  1.0000
  C   C10       1.0  0.95789  0.05156  0.23620  1.0000
  C   C11       1.0  0.95828  0.95101  0.23968  1.0000
  C   C12       1.0  0.04233  0.95099  0.25525  1.0000
  C   C13       1.0  0.42019  0.50082  0.23385  1.0000
  C   C14       1.0  0.58262  0.50202  0.26370  1.0000
  C   C15       1.0  0.91915  0.00121  0.22929  1.0000
  C   C16       1.0  0.08081  0.00121  0.25826  1.0000
  C   C17       1.0  0.54257  0.54832  0.75755  1.0000
  C   C18       1.0  0.45918  0.54941  0.74800  1.0000
  C   C19       1.0  0.45619  0.44936  0.74356  1.0000
  C   C20       1.0  0.53947  0.44830  0.75380  1.0000
  C   C21       1.0  0.72609  0.25241  0.80255  1.0000
  C   C22       1.0  0.25781  0.25850  0.68699  1.0000
  C   C23       1.0  0.28046  0.74755  0.72937  1.0000
  C   C24       1.0  0.73682  0.74040  0.80331  1.0000
  C   C25       1.0  0.03805  0.04934  0.74744  1.0000
  C   C26       1.0  0.95475  0.04814  0.73844  1.0000
  C   C27       1.0  0.95717  0.94806  0.74372  1.0000
  C   C28       1.0  0.04075  0.94913  0.75617  1.0000
  C   C29       1.0  0.41886  0.49981  0.74232  1.0000
  C   C30       1.0  0.57989  0.49782  0.75985  1.0000
  C   C31       1.0  0.91709  0.99780  0.73618  1.0000
  C   C32       1.0  0.07825  0.99949  0.75597  1.0000
  N   N1        1.0  0.77059  0.75869  0.21786  1.0000
  N   N2        1.0  0.23165  0.75809  0.30533  1.0000
  N   N3        1.0  0.22486  0.24514  0.25882  1.0000
  N   N4        1.0  0.76910  0.24379  0.20876  1.0000
  N   N5        1.0  0.77679  0.75227  0.71582  1.0000
  N   N6        1.0  0.23101  0.75661  0.80300  1.0000
  N   N7        1.0  0.22395  0.24336  0.78034  1.0000
  N   N8        1.0  0.77021  0.24147  0.72099  1.0000
  C   C33       1.0  0.68757  0.64185  0.18936  1.0000
  C   C34       1.0  0.68743  0.68753  0.26995  1.0000
  C  Sn1       1.0  0.63969  0.68884  0.36148  1.0000
  C  Sn2       1.0  0.59127  0.64352  0.37234  1.0000
  C   C35       1.0  0.59188  0.59800  0.29133  1.0000
  C   C36       1.0  0.63986  0.59712  0.20004  1.0000
  H   H17       1.0  0.72472  0.64115  0.11878  1.0000
  O  Te1       1.0  0.64024  0.73481  0.44120  1.0000
  O  Te2       1.0  0.54302  0.64375  0.46303  1.0000
  H   H18       1.0  0.64000  0.56173  0.13772  1.0000
  Mg  Mg1       1.0  0.56425  0.71578  0.54980  1.0000
  C   C37       1.0  0.38809  0.68386  0.13581  1.0000
  C   C38       1.0  0.32463  0.69346  0.19414  1.0000
  C  Sn3       1.0  0.30619  0.65589  0.28414  1.0000
  C  Sn4       1.0  0.35226  0.60785  0.31615  1.0000
  C   C39       1.0  0.41566  0.59865  0.25733  1.0000
  C   C40       1.0  0.43358  0.63651  0.16737  1.0000
  H   H19       1.0  0.40199  0.71317  0.06626  1.0000
  O  Te3       1.0  0.24257  0.66610  0.34147  1.0000
  O  Te4       1.0  0.33514  0.56963  0.40582  1.0000
  H   H20       1.0  0.48275  0.62908  0.12228  1.0000
  Mg  Mg2       1.0  0.24255  0.60179  0.45791  1.0000
  C   C41       1.0  0.32874  0.38899  0.28615  1.0000
  C   C42       1.0  0.39711  0.39981  0.24158  1.0000
  C  Sn5       1.0  0.42455  0.36206  0.16220  1.0000
  C  Sn6       1.0  0.38263  0.31261  0.12691  1.0000
  C   C43       1.0  0.31426  0.30218  0.17191  1.0000
  C   C44       1.0  0.28733  0.34023  0.25134  1.0000
  H   H21       1.0  0.30787  0.41843  0.34754  1.0000
  O  Te5       1.0  0.49299  0.37352  0.11858  1.0000
  O  Te6       1.0  0.40874  0.27418  0.04764  1.0000
  H   H22       1.0  0.23436  0.33185  0.28575  1.0000
  Mg  Mg3       1.0  0.50508  0.30837  0.01267  1.0000
  C   C45       1.0  0.68622  0.36101  0.18066  1.0000
  C   C46       1.0  0.69209  0.31744  0.27043  1.0000
  C  Sn7       1.0  0.64418  0.31562  0.36166  1.0000
  C  Sn8       1.0  0.58942  0.35827  0.36278  1.0000
  C   C47       1.0  0.58396  0.40166  0.27250  1.0000
  C   C48       1.0  0.63221  0.40307  0.18166  1.0000
  H   H23       1.0  0.72352  0.36209  0.11031  1.0000
  O  Te7       1.0  0.65083  0.27181  0.45069  1.0000
  O  Te8       1.0  0.54080  0.35747  0.45288  1.0000
  H   H24       1.0  0.62761  0.43679  0.11210  1.0000
  Mg  Mg4       1.0  0.57176  0.28906  0.55452  1.0000
  C   C49       1.0  0.18376  0.13724  0.15686  1.0000
  C   C50       1.0  0.18447  0.18590  0.22686  1.0000
  C  Sn9       1.0  0.13915  0.19134  0.32137  1.0000
  C  Sn10      1.0  0.09232  0.14717  0.34609  1.0000
  C   C51       1.0  0.09207  0.09865  0.27561  1.0000
  C   C52       1.0  0.13762  0.09365  0.18121  1.0000
  H   H25       1.0  0.21904  0.13336  0.08388  1.0000
  O  Te9       1.0  0.14052  0.24024  0.39038  1.0000
  O  Te10      1.0  0.04649  0.15150  0.44004  1.0000
  H   H26       1.0  0.13710  0.05596  0.12710  1.0000
  Mg  Mg5       1.0  0.06799  0.22639  0.50863  1.0000
  C   C53       1.0  0.82902  0.10941  0.30225  1.0000
  C   C54       1.0  0.89004  0.09983  0.23823  1.0000
  C  Sn11      1.0  0.91417  0.14072  0.16257  1.0000
  C  Sn12      1.0  0.87641  0.19213  0.15101  1.0000
  C   C55       1.0  0.81545  0.20132  0.21552  1.0000
  C   C56       1.0  0.79176  0.16011  0.29094  1.0000
  H   H27       1.0  0.81072  0.07753  0.36067  1.0000
  O  Te11      1.0  0.97521  0.13046  0.09922  1.0000
  O  Te12      1.0  0.89936  0.23372  0.07606  1.0000
  H   H28       1.0  0.74455  0.16755  0.34057  1.0000
  Mg  Mg6       1.0  0.98544  0.20005  0.00831  1.0000
  C   C57       1.0  0.83296  0.89223  0.31479  1.0000
  C   C58       1.0  0.89676  0.90067  0.25647  1.0000
  C  Sn13      1.0  0.91671  0.86127  0.17270  1.0000
  C  Sn14      1.0  0.87184  0.81257  0.14700  1.0000
  C   C59       1.0  0.80808  0.80453  0.20575  1.0000
  C   C60       1.0  0.78864  0.84422  0.28945  1.0000
  H   H29       1.0  0.81789  0.92295  0.37950  1.0000
  O  Te13      1.0  0.98066  0.87034  0.11529  1.0000
  O  Te14      1.0  0.89047  0.77252  0.06362  1.0000
  H   H30       1.0  0.73921  0.83769  0.33452  1.0000
  Mg  Mg7       1.0  0.98293  0.80366  0.00876  1.0000
  C   C61       1.0  0.08590  0.84328  0.36470  1.0000
  C   C62       1.0  0.09117  0.89218  0.29834  1.0000
  C  Sn15      1.0  0.14672  0.89826  0.22131  1.0000
  C  Sn16      1.0  0.19785  0.85451  0.21066  1.0000
  C   C63       1.0  0.19207  0.80574  0.27735  1.0000
  C   C64       1.0  0.13628  0.80010  0.35421  1.0000
  H   H31       1.0  0.04271  0.83890  0.42410  1.0000
  O  Te15      1.0  0.15122  0.94740  0.15571  1.0000
  O  Te16      1.0  0.25389  0.85948  0.13430  1.0000
  H   H32       1.0  0.13218  0.76222  0.40550  1.0000
  Mg  Mg8       1.0  0.23729  0.93447  0.06363  1.0000
  C   C65       1.0  0.69507  0.63367  0.69499  1.0000
  C   C66       1.0  0.69241  0.68117  0.76791  1.0000
  C  Sn17      1.0  0.64015  0.68539  0.85146  1.0000
  C  Sn18      1.0  0.58971  0.64117  0.86203  1.0000
  C   C67       1.0  0.59287  0.59381  0.78874  1.0000
  C   C68       1.0  0.64537  0.59003  0.70539  1.0000
  H   H33       1.0  0.73572  0.63073  0.63055  1.0000
  O  Te17      1.0  0.63822  0.73315  0.92357  1.0000
  O  Te18      1.0  0.53694  0.64429  0.94483  1.0000
  H   H34       1.0  0.64746  0.55323  0.64902  1.0000
  Mg  Mg9       1.0  0.40319  0.71877  0.02301  1.0000
  C   C69       1.0  0.34288  0.61387  0.83456  1.0000
  C   C70       1.0  0.39449  0.59888  0.75568  1.0000
  C  Sn19      1.0  0.41282  0.63555  0.66359  1.0000
  C  Sn20      1.0  0.37879  0.68817  0.65046  1.0000
  C   C71       1.0  0.32728  0.70278  0.72991  1.0000
  C   C72       1.0  0.30931  0.66577  0.82172  1.0000
  H   H35       1.0  0.32902  0.58524  0.90566  1.0000
  O  Te19      1.0  0.46447  0.61991  0.58553  1.0000
  O  Te20      1.0  0.39612  0.72562  0.55924  1.0000
  H   H36       1.0  0.26940  0.67739  0.88285  1.0000
  Mg  Mg10      1.0  0.46983  0.68527  0.47529  1.0000
  C   C73       1.0  0.33866  0.38433  0.82559  1.0000
  C   C74       1.0  0.39477  0.39852  0.75444  1.0000
  C  Sn21      1.0  0.40387  0.36670  0.64625  1.0000
  C  Sn22      1.0  0.35580  0.31983  0.60880  1.0000
  C   C75       1.0  0.29981  0.30600  0.68056  1.0000
  C   C76       1.0  0.29121  0.33812  0.78868  1.0000
  H   H37       1.0  0.33198  0.40919  0.90920  1.0000
  O  Te21      1.0  0.46022  0.38145  0.57629  1.0000
  O  Te22      1.0  0.36364  0.28731  0.50105  1.0000
  H   H38       1.0  0.24773  0.32714  0.84369  1.0000
  Mg  Mg11      1.0  0.44875  0.32419  0.43678  1.0000
  C   C77       1.0  0.58058  0.34150  0.86632  1.0000
  C   C78       1.0  0.58553  0.38883  0.79360  1.0000
  C  Sn23      1.0  0.63887  0.39208  0.71172  1.0000
  C  Sn24      1.0  0.68808  0.34703  0.70266  1.0000
  C   C79       1.0  0.68263  0.29984  0.77574  1.0000
  C   C80       1.0  0.62907  0.29704  0.85740  1.0000
  H   H39       1.0  0.53911  0.33931  0.92945  1.0000
  O  Te23      1.0  0.64308  0.43969  0.63979  1.0000
  O  Te24      1.0  0.74189  0.34917  0.62155  1.0000
  H   H40       1.0  0.62521  0.26037  0.91362  1.0000
  Mg  Mg12      1.0  0.72577  0.42296  0.54294  1.0000
  C   C81       1.0  0.16202  0.11076  0.67338  1.0000
  C   C82       1.0  0.10387  0.09868  0.74202  1.0000
  C  Sn25      1.0  0.08129  0.13755  0.82435  1.0000
  C  Sn26      1.0  0.11769  0.18943  0.83798  1.0000
  C   C83       1.0  0.17577  0.20113  0.76881  1.0000
  C   C84       1.0  0.19794  0.16193  0.68673  1.0000
  H   H41       1.0  0.17914  0.08044  0.60981  1.0000
  O  Te25      1.0  0.02311  0.12481  0.89225  1.0000
  O  Te26      1.0  0.09623  0.22904  0.91957  1.0000
  H   H42       1.0  0.24292  0.17130  0.63353  1.0000
  Mg  Mg13      1.0  0.01402  0.19232  0.99166  1.0000
  C   C85       1.0  0.81879  0.13666  0.83889  1.0000
  C   C86       1.0  0.81302  0.18312  0.75843  1.0000
  C  Sn27      1.0  0.85207  0.18559  0.65449  1.0000
  C  Sn28      1.0  0.89768  0.14064  0.63089  1.0000
  C   C87       1.0  0.90304  0.09434  0.71189  1.0000
  C   C88       1.0  0.86374  0.09230  0.81565  1.0000
  H   H43       1.0  0.78835  0.13507  0.91912  1.0000
  O  Te27      1.0  0.84570  0.23232  0.57508  1.0000
  O  Te28      1.0  0.93730  0.14202  0.52767  1.0000
  H   H44       1.0  0.86818  0.05631  0.87788  1.0000
  Mg  Mg14      1.0  0.91058  0.21476  0.44667  1.0000
  C   C89       1.0  0.89142  0.81393  0.63854  1.0000
  C   C90       1.0  0.83575  0.80079  0.71142  1.0000
  C  Sn29      1.0  0.81338  0.83927  0.79490  1.0000
  C  Sn30      1.0  0.84745  0.89185  0.80538  1.0000
  C   C91       1.0  0.90305  0.90461  0.73198  1.0000
  C   C92       1.0  0.92504  0.86579  0.64877  1.0000
  H   H45       1.0  0.90841  0.78390  0.57410  1.0000
  O  Te29      1.0  0.75770  0.82546  0.86705  1.0000
  O  Te30      1.0  0.82613  0.93110  0.88804  1.0000
  H   H46       1.0  0.96810  0.87598  0.59229  1.0000
  Mg  Mg15      1.0  0.74777  0.89287  0.96634  1.0000
  C   C93       1.0  0.12356  0.82139  0.89083  1.0000
  C   C94       1.0  0.17264  0.80547  0.80836  1.0000
  C  Sn31      1.0  0.18368  0.83965  0.70530  1.0000
  C  Sn32      1.0  0.14480  0.89070  0.68469  1.0000
  C   C95       1.0  0.09586  0.90627  0.76780  1.0000
  C   C96       1.0  0.08521  0.87175  0.87060  1.0000
  H   H47       1.0  0.11535  0.79470  0.97042  1.0000
  O  Te31      1.0  0.23290  0.82309  0.62381  1.0000
  O  Te32      1.0  0.15481  0.92566  0.58246  1.0000
  H   H48       1.0  0.04725  0.88410  0.93449  1.0000
  Mg  Mg16      1.0  0.22779  0.88493  0.49776  1.0000
