data_image0
_chemical_formula_structural       H16C32N8SnCSn2CSnTe4Mg2SnCSn2CSnTe4Mg2SnCSn2CSnTe4Mg2SnCSn2CSnTe4Mg2SnCSn2CSnTe4Mg2SnCSn2CSnTe4Mg2SnCSn2CSnTe4Mg2SnCSn2CSnTe4Mg2SnCSn2CSnTe4Mg2SnCSn2CSnTe4Mg2SnCSn2CSnTe4Mg2SnCSn2CSnTe4Mg2SnCSn2CSnTe4Mg2SnCSn2CSnTe4Mg2SnCSn2CSnTe4Mg2SnCSn2CSnTe4Mg2
_chemical_formula_sum              "H16 C64 N8 Sn64 Te64 Mg32"
_cell_length_a       17.6594
_cell_length_b       24.3994
_cell_length_c       9.5282
_cell_angle_alpha    76.3063
_cell_angle_beta     97.5666
_cell_angle_gamma    89.8394

_symmetry_space_group_name_H-M    'P1'
_space_group_IT_number       1

loop_
  _space_group_symop_operation_xyz
  'x, y, z'

loop_
  _atom_site_type_symbol
  _atom_site_label
  _atom_site_symmetry_multiplicity
  _atom_site_fract_x
  _atom_site_fract_y
  _atom_site_fract_z
  _atom_site_occupancy
  H   H1        1.0  0.10982  0.77678  0.21420  1.0000
  H   H2        1.0  0.89123  0.27239  0.27464  1.0000
  H   H3        1.0  0.98962  0.99101  0.43840  1.0000
  H   H4        1.0  0.02924  0.51649  0.06807  1.0000
  H   H5        1.0  0.39060  0.76743  0.27373  1.0000
  H   H6        1.0  0.61148  0.26973  0.23442  1.0000
  H   H7        1.0  0.51292  0.55180  0.05913  1.0000
  H   H8        1.0  0.46620  0.02868  0.42566  1.0000
  H   H9        1.0  0.10814  0.77393  0.71338  1.0000
  H   H10       1.0  0.89022  0.27015  0.78437  1.0000
  H   H11       1.0  0.98549  0.98691  0.93737  1.0000
  H   H12       1.0  0.03208  0.51157  0.58110  1.0000
  H   H13       1.0  0.38845  0.76723  0.77523  1.0000
  H   H14       1.0  0.61045  0.26811  0.73508  1.0000
  H   H15       1.0  0.51330  0.55044  0.56547  1.0000
  H   H16       1.0  0.47517  0.02279  0.92915  1.0000
  C   C1        1.0  0.29180  0.82091  0.26197  1.0000
  C   C2        1.0  0.70812  0.32224  0.23736  1.0000
  C   C3        1.0  0.21071  0.82247  0.24824  1.0000
  C   C4        1.0  0.78889  0.32379  0.24481  1.0000
  C   C5        1.0  0.17197  0.77382  0.23193  1.0000
  C   C6        1.0  0.82914  0.27238  0.26108  1.0000
  C   C7        1.0  0.99064  0.02393  0.33745  1.0000
  C   C8        1.0  0.02095  0.53492  0.16004  1.0000
  C   C9        1.0  0.20866  0.72306  0.22832  1.0000
  C   C10       1.0  0.79454  0.22028  0.26892  1.0000
  C   C11       1.0  0.28973  0.72154  0.24173  1.0000
  C   C12       1.0  0.71380  0.21870  0.26194  1.0000
  C   C13       1.0  0.32844  0.77026  0.25753  1.0000
  C   C14       1.0  0.67357  0.27005  0.24638  1.0000
  C   C15       1.0  0.51286  0.51963  0.16177  1.0000
  C   C16       1.0  0.47817  0.00895  0.33788  1.0000
  C   C17       1.0  0.28913  0.82014  0.75940  1.0000
  C   C18       1.0  0.70698  0.32008  0.74258  1.0000
  C   C19       1.0  0.20803  0.82110  0.74537  1.0000
  C   C20       1.0  0.78774  0.32182  0.75193  1.0000
  C   C21       1.0  0.17033  0.77180  0.73105  1.0000
  C   C22       1.0  0.82813  0.27036  0.76917  1.0000
  C   C23       1.0  0.98503  0.02018  0.83698  1.0000
  C   C24       1.0  0.02004  0.53288  0.66568  1.0000
  C   C25       1.0  0.20768  0.72100  0.72963  1.0000
  C   C26       1.0  0.79363  0.21830  0.77592  1.0000
  C   C27       1.0  0.28876  0.71994  0.74398  1.0000
  C   C28       1.0  0.71285  0.21661  0.76553  1.0000
  C   C29       1.0  0.32634  0.76930  0.75785  1.0000
  C   C30       1.0  0.67250  0.26799  0.74961  1.0000
  C   C31       1.0  0.51325  0.51821  0.66772  1.0000
  C   C32       1.0  0.48222  0.00506  0.83548  1.0000
  N   N1        1.0  0.53035  0.02574  0.25579  1.0000
  N   N2        1.0  0.47422  0.52588  0.26380  1.0000
  N   N3        1.0  0.97217  0.51667  0.24893  1.0000
  N   N4        1.0  0.02980  0.01845  0.23558  1.0000
  N   N5        1.0  0.53115  0.02359  0.74662  1.0000
  N   N6        1.0  0.47476  0.52482  0.77016  1.0000
  N   N7        1.0  0.96774  0.51714  0.74855  1.0000
  N   N8        1.0  0.02311  0.01496  0.73276  1.0000
  C  Sn1       1.0  0.43242  0.87749  0.25206  1.0000
  C   C33       1.0  0.36403  0.86214  0.30735  1.0000
  C  Sn2       1.0  0.32400  0.89980  0.36300  1.0000
  C  Sn3       1.0  0.35289  0.95396  0.36332  1.0000
  C   C34       1.0  0.42123  0.96929  0.30804  1.0000
  C  Sn4       1.0  0.46132  0.93165  0.25238  1.0000
  O  Te1       1.0  0.47149  0.83917  0.19696  1.0000
  O  Te2       1.0  0.25576  0.88349  0.41773  1.0000
  O  Te3       1.0  0.31763  0.99229  0.41849  1.0000
  O  Te4       1.0  0.52950  0.94794  0.19766  1.0000
  Mg  Mg1       1.0  0.22329  0.95053  0.48097  1.0000
  Mg  Mg2       1.0  0.56201  0.88095  0.13433  1.0000
  C  Sn5       1.0  0.57390  0.41336  0.32718  1.0000
  C   C35       1.0  0.57221  0.46440  0.22232  1.0000
  C  Sn6       1.0  0.60942  0.46849  0.09982  1.0000
  C  Sn7       1.0  0.64911  0.42056  0.08169  1.0000
  C   C36       1.0  0.65076  0.36956  0.18650  1.0000
  C  Sn8       1.0  0.61358  0.36543  0.30906  1.0000
  O  Te5       1.0  0.53629  0.41023  0.44878  1.0000
  O  Te6       1.0  0.67837  0.42739  0.99648  1.0000
  O  Te7       1.0  0.75813  0.33114  0.95997  1.0000
  O  Te8       1.0  0.61602  0.31398  0.41233  1.0000
  Mg  Mg3       1.0  0.73837  0.41052  0.84933  1.0000
  Mg  Mg4       1.0  0.55601  0.33079  0.55948  1.0000
  C  Sn9       1.0  0.08129  0.90653  0.37412  1.0000
  C   C37       1.0  0.08252  0.96154  0.28854  1.0000
  C  Sn10      1.0  0.12145  0.97281  0.16692  1.0000
  C  Sn11      1.0  0.15993  0.92818  0.13000  1.0000
  C   C38       1.0  0.15868  0.87322  0.21553  1.0000
  C  Sn12      1.0  0.11977  0.86190  0.33719  1.0000
  O  Te9       1.0  0.04200  0.89623  0.49521  1.0000
  O  Te10      1.0  0.12576  0.02815  0.08306  1.0000
  O  Te11      1.0  0.19923  0.93853  0.00879  1.0000
  O  Te12      1.0  0.11931  0.80661  0.42101  1.0000
  Mg  Mg5       1.0  0.25858  0.92833  0.92847  1.0000
  Mg  Mg6       1.0  0.05788  0.81378  0.57558  1.0000
  C  Sn13      1.0  0.86221  0.44676  0.35136  1.0000
  C   C39       1.0  0.92755  0.45952  0.28325  1.0000
  C  Sn14      1.0  0.94386  0.43221  0.17680  1.0000
  C  Sn15      1.0  0.89379  0.39132  0.13754  1.0000
  C   C40       1.0  0.82849  0.37859  0.20561  1.0000
  C  Sn16      1.0  0.81215  0.40587  0.31209  1.0000
  O  Te13      1.0  0.84703  0.47458  0.45747  1.0000
  O  Te14      1.0  0.00954  0.44566  0.11027  1.0000
  O  Te15      1.0  0.90903  0.36350  0.03133  1.0000
  O  Te16      1.0  0.74650  0.39244  0.37859  1.0000
  Mg  Mg7       1.0  0.07698  0.30376  0.97184  1.0000
  Mg  Mg8       1.0  0.75040  0.44174  0.51697  1.0000
  C  Sn17      1.0  0.04198  0.64080  0.23310  1.0000
  C   C41       1.0  0.05343  0.60004  0.15602  1.0000
  C  Sn18      1.0  0.12441  0.59327  0.11143  1.0000
  C  Sn19      1.0  0.18524  0.62793  0.14466  1.0000
  C   C42       1.0  0.17378  0.66865  0.22171  1.0000
  C  Sn20      1.0  0.10281  0.67546  0.26633  1.0000
  O  Te17      1.0  0.97055  0.64682  0.27660  1.0000
  O  Te18      1.0  0.13448  0.55225  0.03445  1.0000
  O  Te19      1.0  0.25671  0.62187  0.10107  1.0000
  O  Te20      1.0  0.09273  0.71644  0.34328  1.0000
  Mg  Mg9       1.0  0.31372  0.46751  0.99881  1.0000
  Mg  Mg10      1.0  0.98494  0.70861  0.37904  1.0000
  C  Sn21      1.0  0.86007  0.07557  0.39030  1.0000
  C   C43       1.0  0.92184  0.07050  0.31585  1.0000
  C  Sn22      1.0  0.95113  0.11838  0.23112  1.0000
  C  Sn23      1.0  0.91802  0.17247  0.22065  1.0000
  C   C44       1.0  0.85630  0.17753  0.29508  1.0000
  C  Sn24      1.0  0.82696  0.12966  0.37983  1.0000
  O  Te21      1.0  0.83172  0.02712  0.47438  1.0000
  O  Te22      1.0  0.01290  0.11225  0.15765  1.0000
  O  Te23      1.0  0.94643  0.22094  0.13647  1.0000
  O  Te24      1.0  0.76524  0.13578  0.45328  1.0000
  Mg  Mg11      1.0  0.03131  0.19085  0.05686  1.0000
  Mg  Mg12      1.0  0.74681  0.05721  0.55416  1.0000
  C  Sn25      1.0  0.44947  0.64494  0.18140  1.0000
  C   C45       1.0  0.44696  0.58974  0.26513  1.0000
  C  Sn26      1.0  0.38289  0.57207  0.33327  1.0000
  C  Sn27      1.0  0.31999  0.61035  0.31733  1.0000
  C   C46       1.0  0.32252  0.66551  0.23363  1.0000
  C  Sn28      1.0  0.38658  0.68322  0.16546  1.0000
  O  Te25      1.0  0.51411  0.66169  0.11425  1.0000
  O  Te26      1.0  0.38170  0.51669  0.41646  1.0000
  O  Te27      1.0  0.25533  0.59355  0.38457  1.0000
  O  Te28      1.0  0.38778  0.73856  0.08230  1.0000
  Mg  Mg13      1.0  0.28078  0.51380  0.48658  1.0000
  Mg  Mg14      1.0  0.48865  0.74149  0.01207  1.0000
  C  Sn29      1.0  0.66511  0.12324  0.15225  1.0000
  C   C47       1.0  0.65896  0.16692  0.22257  1.0000
  C  Sn30      1.0  0.61261  0.16177  0.33270  1.0000
  C  Sn31      1.0  0.57159  0.11190  0.37348  1.0000
  C   C48       1.0  0.57776  0.06825  0.30320  1.0000
  C  Sn32      1.0  0.62409  0.07338  0.19303  1.0000
  O  Te29      1.0  0.71179  0.12931  0.04245  1.0000
  O  Te30      1.0  0.60736  0.20601  0.40139  1.0000
  O  Te31      1.0  0.52488  0.10586  0.48337  1.0000
  O  Te32      1.0  0.62937  0.02916  0.12438  1.0000
  Mg  Mg15      1.0  0.53638  0.17778  0.54468  1.0000
  Mg  Mg16      1.0  0.77176  0.96475  0.98113  1.0000
  C  Sn33      1.0  0.36958  0.93075  0.92059  1.0000
  C   C49       1.0  0.43644  0.94631  0.85976  1.0000
  C  Sn34      1.0  0.45065  0.92515  0.74380  1.0000
  C  Sn35      1.0  0.40083  0.88767  0.68740  1.0000
  C   C50       1.0  0.33400  0.87213  0.74821  1.0000
  C  Sn36      1.0  0.31589  0.89327  0.86419  1.0000
  O  Te33      1.0  0.28124  0.04501  0.03645  1.0000
  O  Te34      1.0  0.52171  0.94131  0.68482  1.0000
  O  Te35      1.0  0.41782  0.86600  0.57145  1.0000
  O  Te36      1.0  0.24874  0.87714  0.92314  1.0000
  Mg  Mg17      1.0  0.51598  0.90050  0.52792  1.0000
  Mg  Mg18      1.0  0.18298  0.01053  0.07999  1.0000
  C  Sn37      1.0  0.66741  0.43666  0.61706  1.0000
  C   C51       1.0  0.67068  0.38638  0.72503  1.0000
  C  Sn38      1.0  0.61090  0.37297  0.80835  1.0000
  C  Sn39      1.0  0.54649  0.41058  0.78317  1.0000
  C   C52       1.0  0.54323  0.46082  0.67524  1.0000
  C  Sn40      1.0  0.60299  0.47427  0.59188  1.0000
  O  Te37      1.0  0.72782  0.44921  0.53507  1.0000
  O  Te38      1.0  0.61548  0.32247  0.91571  1.0000
  O  Te39      1.0  0.48605  0.39799  0.86528  1.0000
  O  Te40      1.0  0.59843  0.52473  0.48456  1.0000
  Mg  Mg19      1.0  0.51874  0.32411  0.99891  1.0000
  Mg  Mg20      1.0  0.69511  0.52312  0.40124  1.0000
  C  Sn41      1.0  0.07438  0.90299  0.86763  1.0000
  C   C53       1.0  0.07937  0.95826  0.78359  1.0000
  C  Sn42      1.0  0.11976  0.97041  0.66396  1.0000
  C  Sn43      1.0  0.15596  0.92641  0.62748  1.0000
  C   C54       1.0  0.15482  0.87118  0.71147  1.0000
  C  Sn44      1.0  0.11445  0.85898  0.83115  1.0000
  O  Te41      1.0  0.03363  0.89180  0.98675  1.0000
  O  Te42      1.0  0.12005  0.02600  0.58161  1.0000
  O  Te43      1.0  0.19673  0.93764  0.50825  1.0000
  O  Te44      1.0  0.11413  0.80344  0.91346  1.0000
  Mg  Mg21      1.0  0.18383  0.02004  0.42947  1.0000
  Mg  Mg22      1.0  0.97894  0.90192  0.06557  1.0000
  C  Sn45      1.0  0.92616  0.42281  0.63334  1.0000
  C   C55       1.0  0.91707  0.46824  0.69626  1.0000
  C  Sn46      1.0  0.86699  0.46528  0.79953  1.0000
  C  Sn47      1.0  0.82515  0.41586  0.84083  1.0000
  C   C56       1.0  0.83426  0.37046  0.77794  1.0000
  C  Sn48      1.0  0.88432  0.37340  0.67464  1.0000
  O  Te45      1.0  0.97654  0.42670  0.53033  1.0000
  O  Te46      1.0  0.85885  0.51125  0.86089  1.0000
  O  Te47      1.0  0.77474  0.41201  0.94392  1.0000
  O  Te48      1.0  0.89248  0.32746  0.61332  1.0000
  Mg  Mg23      1.0  0.78328  0.48571  0.99663  1.0000
  Mg  Mg24      1.0  0.96806  0.35294  0.47763  1.0000
  C  Sn49      1.0  0.04060  0.63973  0.73397  1.0000
  C   C57       1.0  0.05177  0.59852  0.65808  1.0000
  C  Sn50      1.0  0.12290  0.59090  0.61503  1.0000
  C  Sn51      1.0  0.18417  0.62514  0.64861  1.0000
  C   C58       1.0  0.17299  0.66631  0.72447  1.0000
  C  Sn52      1.0  0.10187  0.67397  0.76754  1.0000
  O  Te49      1.0  0.96901  0.64661  0.77594  1.0000
  O  Te50      1.0  0.13268  0.54944  0.53923  1.0000
  O  Te51      1.0  0.25580  0.61823  0.60657  1.0000
  O  Te52      1.0  0.09208  0.71539  0.84332  1.0000
  Mg  Mg25      1.0  0.24088  0.55614  0.50550  1.0000
  Mg  Mg26      1.0  0.98392  0.70871  0.87717  1.0000
  C  Sn53      1.0  0.89554  0.15371  0.66915  1.0000
  C   C59       1.0  0.84175  0.16216  0.75792  1.0000
  C  Sn54      1.0  0.84136  0.12599  0.89548  1.0000
  C  Sn55      1.0  0.89590  0.08045  0.94540  1.0000
  C   C60       1.0  0.94965  0.07203  0.85667  1.0000
  C  Sn56      1.0  0.95007  0.10816  0.71907  1.0000
  O  Te53      1.0  0.89487  0.19039  0.53203  1.0000
  O  Te54      1.0  0.78702  0.13528  0.98224  1.0000
  O  Te55      1.0  0.82512  0.13635  0.08264  1.0000
  O  Te56      1.0  0.00438  0.09890  0.63235  1.0000
  Mg  Mg27      1.0  0.73966  0.16642  0.16074  1.0000
  Mg  Mg28      1.0  0.98042  0.16034  0.45387  1.0000
  C  Sn57      1.0  0.39565  0.66272  0.62542  1.0000
  C   C61       1.0  0.33561  0.66545  0.70580  1.0000
  C  Sn58      1.0  0.32777  0.62270  0.82912  1.0000
  C  Sn59      1.0  0.38109  0.57625  0.87307  1.0000
  C   C62       1.0  0.44109  0.57353  0.79273  1.0000
  C  Sn60      1.0  0.44897  0.61627  0.66937  1.0000
  O  Te57      1.0  0.40239  0.70594  0.50251  1.0000
  O  Te58      1.0  0.26726  0.62636  0.90770  1.0000
  O  Te59      1.0  0.37431  0.53301  0.99609  1.0000
  O  Te60      1.0  0.50944  0.61263  0.59083  1.0000
  Mg  Mg29      1.0  0.21090  0.64961  0.06737  1.0000
  Mg  Mg30      1.0  0.49448  0.68195  0.43120  1.0000
  C  Sn61      1.0  0.54855  0.13334  0.79294  1.0000
  C   C63       1.0  0.56059  0.08733  0.73376  1.0000
  C  Sn62      1.0  0.63268  0.07591  0.69989  1.0000
  C  Sn63      1.0  0.69404  0.11119  0.72579  1.0000
  C   C64       1.0  0.68200  0.15716  0.78495  1.0000
  C  Sn64      1.0  0.60992  0.16862  0.81883  1.0000
  O  Te61      1.0  0.47601  0.14396  0.82597  1.0000
  O  Te62      1.0  0.64331  0.02968  0.64077  1.0000
  O  Te63      1.0  0.76662  0.10054  0.69269  1.0000
  O  Te64      1.0  0.59928  0.21481  0.87794  1.0000
  Mg  Mg31      1.0  0.75264  0.03254  0.61401  1.0000
  Mg  Mg32      1.0  0.48998  0.21197  0.90481  1.0000
