data_image0
_chemical_formula_structural       H16C32N8SnCSn2CSnTe4Mg2SnCSn2CSnTe4Mg2SnCSn2CSnTe4Mg2SnCSn2CSnTe4Mg2SnCSn2CSnTe4Mg2SnCSn2CSnTe4Mg2SnCSn2CSnTe4Mg2SnCSn2CSnTe4Mg2SnCSn2CSnTe4Mg2SnCSn2CSnTe4Mg2SnCSn2CSnTe4Mg2SnCSn2CSnTe4Mg2SnCSn2CSnTe4Mg2SnCSn2CSnTe4Mg2SnCSn2CSnTe4Mg2SnCSn2CSnTe4Mg2
_chemical_formula_sum              "H16 C64 N8 Sn64 Te64 Mg32"
_cell_length_a       17.3948
_cell_length_b       24.6228
_cell_length_c       10.1228
_cell_angle_alpha    90.2043
_cell_angle_beta     103.859
_cell_angle_gamma    90.0139

_symmetry_space_group_name_H-M    'P1'
_space_group_IT_number       1

loop_
  _space_group_symop_operation_xyz
  'x, y, z'

loop_
  _atom_site_type_symbol
  _atom_site_label
  _atom_site_symmetry_multiplicity
  _atom_site_fract_x
  _atom_site_fract_y
  _atom_site_fract_z
  _atom_site_occupancy
  H   H1        1.0  0.35748  0.50363  0.22081  1.0000
  H   H2        1.0  0.64727  0.50115  0.29742  1.0000
  H   H3        1.0  0.85809  0.00194  0.22775  1.0000
  H   H4        1.0  0.14542  0.00281  0.27036  1.0000
  H   H5        1.0  0.23680  0.73498  0.38280  1.0000
  H   H6        1.0  0.77209  0.73068  0.10973  1.0000
  H   H7        1.0  0.70165  0.21936  0.36113  1.0000
  H   H8        1.0  0.25552  0.23899  0.09749  1.0000
  H   H9        1.0  0.35524  0.50023  0.72259  1.0000
  H   H10       1.0  0.64299  0.50196  0.76883  1.0000
  H   H11       1.0  0.85501  0.00133  0.73078  1.0000
  H   H12       1.0  0.14280  0.00018  0.77444  1.0000
  H   H13       1.0  0.23460  0.73360  0.90096  1.0000
  H   H14       1.0  0.75918  0.73465  0.59592  1.0000
  H   H15       1.0  0.74094  0.23613  0.90735  1.0000
  H   H16       1.0  0.28165  0.22533  0.61681  1.0000
  C   C1        1.0  0.54511  0.55222  0.26557  1.0000
  C   C2        1.0  0.46158  0.55332  0.24758  1.0000
  C   C3        1.0  0.04285  0.05304  0.25375  1.0000
  C   C4        1.0  0.96017  0.05244  0.24490  1.0000
  C   C5        1.0  0.42175  0.50338  0.24014  1.0000
  C   C6        1.0  0.58291  0.50146  0.27629  1.0000
  C   C7        1.0  0.92191  0.00206  0.23950  1.0000
  C   C8        1.0  0.08145  0.00279  0.25643  1.0000
  C   C9        1.0  0.45937  0.45285  0.24762  1.0000
  C   C10       1.0  0.54285  0.45147  0.26719  1.0000
  C   C11       1.0  0.96042  0.95194  0.24123  1.0000
  C   C12       1.0  0.04316  0.95238  0.25097  1.0000
  C   C13       1.0  0.23707  0.76036  0.29364  1.0000
  C   C14       1.0  0.77220  0.75662  0.19851  1.0000
  C   C15       1.0  0.72028  0.25166  0.30079  1.0000
  C   C16       1.0  0.26196  0.26189  0.19312  1.0000
  C   C17       1.0  0.53984  0.55167  0.75156  1.0000
  C   C18       1.0  0.45719  0.55114  0.74343  1.0000
  C   C19       1.0  0.04085  0.05095  0.75921  1.0000
  C   C20       1.0  0.95816  0.05141  0.75105  1.0000
  C   C21       1.0  0.41930  0.50054  0.73786  1.0000
  C   C22       1.0  0.57908  0.50159  0.75610  1.0000
  C   C23       1.0  0.91900  0.00122  0.74423  1.0000
  C   C24       1.0  0.07887  0.00053  0.76156  1.0000
  C   C25       1.0  0.45856  0.45050  0.74234  1.0000
  C   C26       1.0  0.54144  0.45122  0.75425  1.0000
  C   C27       1.0  0.95703  0.95094  0.74537  1.0000
  C   C28       1.0  0.03968  0.95053  0.75564  1.0000
  C   C29       1.0  0.22946  0.75613  0.80552  1.0000
  C   C30       1.0  0.76331  0.75828  0.68987  1.0000
  C   C31       1.0  0.73641  0.25926  0.81294  1.0000
  C   C32       1.0  0.27323  0.25363  0.69646  1.0000
  N   N1        1.0  0.77502  0.24505  0.23516  1.0000
  N   N2        1.0  0.22887  0.24685  0.28876  1.0000
  N   N3        1.0  0.27712  0.74789  0.20529  1.0000
  N   N4        1.0  0.73377  0.74436  0.28922  1.0000
  N   N5        1.0  0.77130  0.24439  0.71932  1.0000
  N   N6        1.0  0.22751  0.24345  0.77735  1.0000
  N   N7        1.0  0.26388  0.74118  0.71130  1.0000
  N   N8        1.0  0.72813  0.74409  0.78347  1.0000
  C  Sn1       1.0  0.68332  0.60516  0.22932  1.0000
  C   C33       1.0  0.62073  0.59753  0.29190  1.0000
  C  Sn2       1.0  0.58733  0.64182  0.34421  1.0000
  C  Sn3       1.0  0.61707  0.69486  0.33369  1.0000
  C   C34       1.0  0.67962  0.70248  0.27113  1.0000
  C  Sn4       1.0  0.71307  0.65820  0.21881  1.0000
  O  Te1       1.0  0.71581  0.56029  0.17774  1.0000
  O  Te2       1.0  0.52482  0.63318  0.40636  1.0000
  O  Te3       1.0  0.58453  0.73975  0.38535  1.0000
  O  Te4       1.0  0.77553  0.66682  0.15666  1.0000
  Mg  Mg1       1.0  0.50024  0.70724  0.46096  1.0000
  Mg  Mg2       1.0  0.80013  0.59280  0.10198  1.0000
  C  Sn5       1.0  0.32735  0.64875  0.33397  1.0000
  C   C35       1.0  0.32971  0.69546  0.25701  1.0000
  C  Sn6       1.0  0.37099  0.69549  0.15443  1.0000
  C  Sn7       1.0  0.41072  0.64783  0.12815  1.0000
  C   C36       1.0  0.40834  0.60116  0.20507  1.0000
  C  Sn8       1.0  0.36708  0.60109  0.30769  1.0000
  O  Te5       1.0  0.28571  0.64964  0.43601  1.0000
  O  Te6       1.0  0.37252  0.74269  0.07887  1.0000
  O  Te7       1.0  0.45238  0.64698  0.02602  1.0000
  O  Te8       1.0  0.36553  0.55393  0.38320  1.0000
  Mg  Mg3       1.0  0.57656  0.72283  0.95066  1.0000
  Mg  Mg4       1.0  0.30087  0.57522  0.51139  1.0000
  C  Sn9       1.0  0.07157  0.16577  0.31969  1.0000
  C   C37       1.0  0.07570  0.11752  0.24861  1.0000
  C  Sn10      1.0  0.14199  0.10620  0.19804  1.0000
  C  Sn11      1.0  0.20550  0.14388  0.21902  1.0000
  C   C38       1.0  0.20135  0.19209  0.29007  1.0000
  C  Sn12      1.0  0.13507  0.20345  0.34066  1.0000
  O  Te9       1.0  0.00473  0.17625  0.36935  1.0000
  O  Te10      1.0  0.14476  0.05770  0.12726  1.0000
  O  Te11      1.0  0.27237  0.13336  0.16928  1.0000
  O  Te12      1.0  0.13229  0.25191  0.41142  1.0000
  Mg  Mg5       1.0  0.24848  0.06175  0.07933  1.0000
  Mg  Mg6       1.0  0.02863  0.24789  0.45945  1.0000
  C  Sn13      1.0  0.83787  0.14733  0.36270  1.0000
  C   C39       1.0  0.83188  0.19335  0.28049  1.0000
  C  Sn14      1.0  0.86049  0.19242  0.16280  1.0000
  C  Sn15      1.0  0.89577  0.14446  0.12646  1.0000
  C   C40       1.0  0.90173  0.09847  0.20863  1.0000
  C  Sn16      1.0  0.87315  0.09937  0.32636  1.0000
  O  Te13      1.0  0.80886  0.14918  0.47989  1.0000
  O  Te14      1.0  0.85386  0.23894  0.08226  1.0000
  O  Te15      1.0  0.92479  0.14264  0.00916  1.0000
  O  Te16      1.0  0.87975  0.05288  0.40686  1.0000
  Mg  Mg7       1.0  0.04152  0.21785  0.93239  1.0000
  Mg  Mg8       1.0  0.83148  0.07541  0.55671  1.0000
  C  Sn17      1.0  0.58620  0.31010  0.32586  1.0000
  C   C41       1.0  0.65308  0.29972  0.27606  1.0000
  C  Sn18      1.0  0.69504  0.34248  0.23591  1.0000
  C  Sn19      1.0  0.66966  0.39676  0.24581  1.0000
  C   C42       1.0  0.60282  0.40712  0.29560  1.0000
  C  Sn20      1.0  0.56082  0.36438  0.33576  1.0000
  O  Te17      1.0  0.54516  0.26673  0.36542  1.0000
  O  Te18      1.0  0.76171  0.33109  0.18640  1.0000
  O  Te19      1.0  0.71076  0.44014  0.20619  1.0000
  O  Te20      1.0  0.49420  0.37575  0.38526  1.0000
  Mg  Mg9       1.0  0.79795  0.40396  0.14533  1.0000
  Mg  Mg10      1.0  0.45794  0.30292  0.42642  1.0000
  C  Sn21      1.0  0.29942  0.36947  0.28974  1.0000
  C   C43       1.0  0.29477  0.32600  0.19901  1.0000
  C  Sn22      1.0  0.35324  0.31861  0.12709  1.0000
  C  Sn23      1.0  0.41773  0.35542  0.14631  1.0000
  C   C44       1.0  0.42237  0.39885  0.23701  1.0000
  C  Sn24      1.0  0.36392  0.40628  0.30896  1.0000
  O  Te21      1.0  0.24030  0.37607  0.36056  1.0000
  O  Te22      1.0  0.34729  0.27486  0.03691  1.0000
  O  Te23      1.0  0.47687  0.34879  0.07539  1.0000
  O  Te24      1.0  0.36986  0.44999  0.39911  1.0000
  Mg  Mg11      1.0  0.58197  0.28447  0.96397  1.0000
  Mg  Mg12      1.0  0.27462  0.44190  0.47215  1.0000
  C  Sn25      1.0  0.14644  0.88266  0.15080  1.0000
  C   C45       1.0  0.08908  0.89462  0.22243  1.0000
  C  Sn26      1.0  0.08595  0.86525  0.33884  1.0000
  C  Sn27      1.0  0.14132  0.82307  0.38466  1.0000
  C   C46       1.0  0.19865  0.81114  0.31307  1.0000
  C  Sn28      1.0  0.20182  0.84049  0.19663  1.0000
  O  Te25      1.0  0.14847  0.91255  0.03470  1.0000
  O  Te26      1.0  0.02805  0.87793  0.40873  1.0000
  O  Te27      1.0  0.13924  0.79318  0.50087  1.0000
  O  Te28      1.0  0.25968  0.82783  0.12677  1.0000
  Mg  Mg13      1.0  0.04935  0.82570  0.56139  1.0000
  Mg  Mg14      1.0  0.37785  0.88154  0.97414  1.0000
  C  Sn29      1.0  0.79787  0.86811  0.27012  1.0000
  C   C47       1.0  0.80205  0.82137  0.19344  1.0000
  C  Sn30      1.0  0.86771  0.81213  0.13955  1.0000
  C  Sn31      1.0  0.93052  0.85040  0.16286  1.0000
  C   C48       1.0  0.92633  0.89710  0.23952  1.0000
  C  Sn32      1.0  0.86069  0.90637  0.29343  1.0000
  O  Te29      1.0  0.73167  0.87651  0.32301  1.0000
  O  Te30      1.0  0.87053  0.76512  0.06318  1.0000
  O  Te31      1.0  0.99675  0.84196  0.10989  1.0000
  O  Te32      1.0  0.85785  0.95335  0.36978  1.0000
  Mg  Mg15      1.0  0.97323  0.77179  0.01254  1.0000
  Mg  Mg16      1.0  0.75521  0.94670  0.42052  1.0000
  C  Sn33      1.0  0.67008  0.64638  0.65113  1.0000
  C   C49       1.0  0.67220  0.69272  0.73202  1.0000
  C  Sn34      1.0  0.63569  0.69268  0.84081  1.0000
  C  Sn35      1.0  0.59627  0.64531  0.86941  1.0000
  C   C50       1.0  0.59417  0.59899  0.78856  1.0000
  C  Sn36      1.0  0.63065  0.59901  0.67973  1.0000
  O  Te33      1.0  0.70698  0.64734  0.54289  1.0000
  O  Te34      1.0  0.63859  0.73951  0.92022  1.0000
  O  Te35      1.0  0.55935  0.64438  0.97775  1.0000
  O  Te36      1.0  0.62778  0.55221  0.60037  1.0000
  Mg  Mg17      1.0  0.44011  0.71671  0.05652  1.0000
  Mg  Mg18      1.0  0.68688  0.57346  0.46409  1.0000
  C  Sn37      1.0  0.32689  0.64550  0.84816  1.0000
  C   C51       1.0  0.32224  0.69110  0.76481  1.0000
  C  Sn38      1.0  0.35671  0.69046  0.65357  1.0000
  C  Sn39      1.0  0.39663  0.64324  0.62498  1.0000
  C   C52       1.0  0.40126  0.59768  0.70828  1.0000
  C  Sn40      1.0  0.36681  0.59829  0.81957  1.0000
  O  Te37      1.0  0.29199  0.64705  0.95882  1.0000
  O  Te38      1.0  0.35131  0.73654  0.57173  1.0000
  O  Te39      1.0  0.43155  0.64173  0.51421  1.0000
  O  Te40      1.0  0.37219  0.55223  0.90136  1.0000
  Mg  Mg19      1.0  0.40831  0.71463  0.43266  1.0000
  Mg  Mg20      1.0  0.17579  0.57260  0.04041  1.0000
  C  Sn41      1.0  0.13510  0.17642  0.88761  1.0000
  C   C53       1.0  0.18943  0.18681  0.80901  1.0000
  C  Sn42      1.0  0.19019  0.15468  0.69534  1.0000
  C  Sn43      1.0  0.13548  0.11126  0.65941  1.0000
  C   C54       1.0  0.08118  0.10089  0.73796  1.0000
  C  Sn44      1.0  0.08039  0.13300  0.85168  1.0000
  O  Te41      1.0  0.99600  0.20758  0.00082  1.0000
  O  Te42      1.0  0.24508  0.16585  0.61836  1.0000
  O  Te43      1.0  0.13522  0.07861  0.54609  1.0000
  O  Te44      1.0  0.02553  0.12186  0.92862  1.0000
  Mg  Mg21      1.0  0.22138  0.10992  0.47322  1.0000
  Mg  Mg22      1.0  0.90976  0.17629  0.07372  1.0000
  C  Sn45      1.0  0.86926  0.17751  0.61936  1.0000
  C   C55       1.0  0.81125  0.18829  0.69045  1.0000
  C  Sn46      1.0  0.80593  0.15651  0.80196  1.0000
  C  Sn47      1.0  0.85974  0.11307  0.84334  1.0000
  C   C56       1.0  0.91771  0.10231  0.77229  1.0000
  C  Sn48      1.0  0.92307  0.13406  0.66075  1.0000
  O  Te45      1.0  0.87349  0.20980  0.50819  1.0000
  O  Te46      1.0  0.74742  0.16807  0.87140  1.0000
  O  Te47      1.0  0.85546  0.08077  0.95461  1.0000
  O  Te48      1.0  0.98154  0.12253  0.59134  1.0000
  Mg  Mg23      1.0  0.62614  0.11104  0.01652  1.0000
  Mg  Mg24      1.0  0.96350  0.17805  0.44626  1.0000
  C  Sn49      1.0  0.61674  0.36171  0.90974  1.0000
  C   C57       1.0  0.60709  0.40161  0.80928  1.0000
  C  Sn50      1.0  0.63447  0.39288  0.69201  1.0000
  C  Sn51      1.0  0.67224  0.34321  0.67475  1.0000
  C   C58       1.0  0.68186  0.30334  0.77515  1.0000
  C  Sn52      1.0  0.65451  0.31204  0.89247  1.0000
  O  Te49      1.0  0.44951  0.36982  0.02615  1.0000
  O  Te50      1.0  0.62417  0.43338  0.59301  1.0000
  O  Te51      1.0  0.70008  0.33363  0.55822  1.0000
  O  Te52      1.0  0.66478  0.27157  0.99142  1.0000
  Mg  Mg25      1.0  0.67216  0.40118  0.45218  1.0000
  Mg  Mg26      1.0  0.47739  0.30222  0.13225  1.0000
  C  Sn53      1.0  0.29494  0.36618  0.76185  1.0000
  C   C59       1.0  0.30218  0.31868  0.68985  1.0000
  C  Sn54      1.0  0.37059  0.30893  0.64413  1.0000
  C  Sn55      1.0  0.43310  0.34744  0.67101  1.0000
  C   C60       1.0  0.42586  0.39490  0.74299  1.0000
  C  Sn56      1.0  0.35745  0.40469  0.78873  1.0000
  O  Te53      1.0  0.22601  0.37509  0.80660  1.0000
  O  Te54      1.0  0.37645  0.26115  0.57230  1.0000
  O  Te55      1.0  0.50206  0.33849  0.62618  1.0000
  O  Te56      1.0  0.35159  0.45243  0.86053  1.0000
  Mg  Mg27      1.0  0.48213  0.26736  0.53253  1.0000
  Mg  Mg28      1.0  0.24595  0.44625  0.90042  1.0000
  C  Sn57      1.0  0.19753  0.86443  0.71561  1.0000
  C   C61       1.0  0.19688  0.81986  0.80044  1.0000
  C  Sn58      1.0  0.13459  0.81256  0.86379  1.0000
  C  Sn59      1.0  0.07160  0.85057  0.84184  1.0000
  C   C62       1.0  0.07226  0.89510  0.75704  1.0000
  C  Sn60      1.0  0.13453  0.90245  0.69366  1.0000
  O  Te57      1.0  0.26040  0.87092  0.65332  1.0000
  O  Te58      1.0  0.13527  0.76769  0.94819  1.0000
  O  Te59      1.0  0.00870  0.84405  0.90422  1.0000
  O  Te60      1.0  0.13387  0.94727  0.60929  1.0000
  Mg  Mg29      1.0  0.89692  0.77496  0.01018  1.0000
  Mg  Mg30      1.0  0.23277  0.93854  0.54719  1.0000
  C  Sn61      1.0  0.88943  0.85724  0.59749  1.0000
  C   C63       1.0  0.89438  0.89990  0.69058  1.0000
  C  Sn62      1.0  0.86056  0.89487  0.80195  1.0000
  C  Sn63      1.0  0.82101  0.84616  0.82074  1.0000
  C   C64       1.0  0.81609  0.80353  0.72770  1.0000
  C  Sn64      1.0  0.84988  0.80853  0.61627  1.0000
  O  Te61      1.0  0.92368  0.86316  0.48689  1.0000
  O  Te62      1.0  0.86624  0.93809  0.89362  1.0000
  O  Te63      1.0  0.78675  0.84027  0.93145  1.0000
  O  Te64      1.0  0.84423  0.76534  0.52465  1.0000
  Mg  Mg31      1.0  0.67075  0.90903  0.02845  1.0000
  Mg  Mg32      1.0  0.90033  0.79286  0.38984  1.0000
