data_image0
_chemical_formula_structural       H96C180N16Cl16O16C2Sn2C2HTe2HMgC2Sn2C2HTe2HMgC2Sn2C2HTe2HMgC2Sn2C2HTe2HMgC2Sn2C2HTe2HMgC2Sn2C2HTe2HMgC2Sn2C2HTe2HMgC2Sn2C2HTe2HMgC2Sn2C2HTe2HMgC2Sn2C2HTe2HMgC2Sn2C2HTe2HMgC2Sn2C2HTe2HMgC2Sn2C2HTe2HMgC2Sn2C2HTe2HMgC2Sn2C2HTe2HMgC2Sn2C2HTe2HMgC2Sn2C2HTe2HMgC2Sn2C2HTe2HMgC2Sn2C2HTe2HMgC2Sn2C2HTe2HMgC2Sn2C2HTe2HMgC2Sn2C2HTe2HMgC2Sn2C2HTe2HMgC2Sn2C2HTe2HMg
_chemical_formula_sum              "H144 C276 N16 Cl16 O16 Sn48 Te48 Mg24"
_cell_length_a       35.3879
_cell_length_b       35.6995
_cell_length_c       7.53598
_cell_angle_alpha    90.0034
_cell_angle_beta     89.8941
_cell_angle_gamma    90.1211

_symmetry_space_group_name_H-M    'P1'
_space_group_IT_number       1

loop_
  _space_group_symop_operation_xyz
  'x, y, z'

loop_
  _atom_site_type_symbol
  _atom_site_label
  _atom_site_symmetry_multiplicity
  _atom_site_fract_x
  _atom_site_fract_y
  _atom_site_fract_z
  _atom_site_occupancy
  H   H1        1.0  0.19107  0.94525  0.35123  1.0000
  H   H2        1.0  0.30983  0.55695  0.85003  1.0000
  H   H3        1.0  0.05733  0.69034  0.61083  1.0000
  H   H4        1.0  0.44276  0.80944  0.10817  1.0000
  H   H5        1.0  0.69022  0.44706  0.86463  1.0000
  H   H6        1.0  0.80899  0.05713  0.35439  1.0000
  H   H7        1.0  0.55329  0.18815  0.11578  1.0000
  H   H8        1.0  0.94355  0.31042  0.60948  1.0000
  H   H9        1.0  0.14085  0.89718  0.38019  1.0000
  H   H10       1.0  0.36008  0.60496  0.87556  1.0000
  H   H11       1.0  0.10508  0.64009  0.64358  1.0000
  H   H12       1.0  0.39398  0.85886  0.13443  1.0000
  H   H13       1.0  0.64051  0.39852  0.89210  1.0000
  H   H14       1.0  0.85976  0.10470  0.37855  1.0000
  H   H15       1.0  0.60175  0.13832  0.14097  1.0000
  H   H16       1.0  0.89558  0.36063  0.63501  1.0000
  H   H17       1.0  0.10241  0.92125  0.85312  1.0000
  H   H18       1.0  0.39659  0.58179  0.34404  1.0000
  H   H19       1.0  0.08192  0.60147  0.11629  1.0000
  H   H20       1.0  0.41822  0.89622  0.60556  1.0000
  H   H21       1.0  0.60272  0.42175  0.36346  1.0000
  H   H22       1.0  0.89621  0.08043  0.84817  1.0000
  H   H23       1.0  0.57802  0.10212  0.61006  1.0000
  H   H24       1.0  0.91936  0.39625  0.10326  1.0000
  H   H25       1.0  0.18467  0.02072  0.64959  1.0000
  H   H26       1.0  0.31555  0.48113  0.14823  1.0000
  H   H27       1.0  0.98277  0.68292  0.90574  1.0000
  H   H28       1.0  0.52012  0.81661  0.40839  1.0000
  H   H29       1.0  0.68394  0.52188  0.16067  1.0000
  H   H30       1.0  0.81396  0.98042  0.65446  1.0000
  H   H31       1.0  0.47764  0.18341  0.41260  1.0000
  H   H32       1.0  0.01979  0.31494  0.90644  1.0000
  H   H33       1.0  0.26250  0.05661  0.51867  1.0000
  H   H34       1.0  0.24050  0.44427  0.02248  1.0000
  H   H35       1.0  0.94445  0.75837  0.77694  1.0000
  H   H36       1.0  0.55557  0.74019  0.27887  1.0000
  H   H37       1.0  0.76234  0.55720  0.03472  1.0000
  H   H38       1.0  0.73945  0.94486  0.53049  1.0000
  H   H39       1.0  0.44139  0.25621  0.29448  1.0000
  H   H40       1.0  0.05652  0.24075  0.77977  1.0000
  H   H41       1.0  0.24311  0.92566  0.04161  1.0000
  H   H42       1.0  0.25655  0.57586  0.54582  1.0000
  H   H43       1.0  0.07663  0.74343  0.29627  1.0000
  H   H44       1.0  0.42408  0.75726  0.79760  1.0000
  H   H45       1.0  0.74207  0.42759  0.54969  1.0000
  H   H46       1.0  0.75563  0.07599  0.05182  1.0000
  H   H47       1.0  0.57204  0.24090  0.80486  1.0000
  H   H48       1.0  0.92394  0.25704  0.30445  1.0000
  H   H49       1.0  0.28806  0.87519  0.11887  1.0000
  H   H50       1.0  0.21100  0.62546  0.62707  1.0000
  H   H51       1.0  0.12623  0.78991  0.37090  1.0000
  H   H52       1.0  0.37402  0.71123  0.87111  1.0000
  H   H53       1.0  0.78789  0.37747  0.61913  1.0000
  H   H54       1.0  0.70985  0.12559  0.13060  1.0000
  H   H55       1.0  0.62187  0.28739  0.87505  1.0000
  H   H56       1.0  0.87453  0.21034  0.37864  1.0000
  H   H57       1.0  0.32936  0.94028  0.55762  1.0000
  H   H58       1.0  0.17150  0.55942  0.06618  1.0000
  H   H59       1.0  0.05953  0.82976  0.80822  1.0000
  H   H60       1.0  0.44009  0.67024  0.30809  1.0000
  H   H61       1.0  0.82963  0.44120  0.06156  1.0000
  H   H62       1.0  0.66915  0.05936  0.56709  1.0000
  H   H63       1.0  0.55595  0.32840  0.31283  1.0000
  H   H64       1.0  0.94138  0.17042  0.81481  1.0000
  H   H65       1.0  0.09572  0.96479  0.69345  1.0000
  H   H66       1.0  0.40378  0.53776  0.18605  1.0000
  H   H67       1.0  0.03860  0.59488  0.95297  1.0000
  H   H68       1.0  0.46277  0.90355  0.44771  1.0000
  H   H69       1.0  0.59559  0.46546  0.20314  1.0000
  H   H70       1.0  0.90289  0.03554  0.69255  1.0000
  H   H71       1.0  0.53381  0.09544  0.45203  1.0000
  H   H72       1.0  0.96368  0.40294  0.94443  1.0000
  H   H73       1.0  0.25510  0.03201  0.97049  1.0000
  H   H74       1.0  0.24530  0.46924  0.47366  1.0000
  H   H75       1.0  0.97076  0.75341  0.22482  1.0000
  H   H76       1.0  0.53252  0.74724  0.73346  1.0000
  H   H77       1.0  0.75460  0.53422  0.48198  1.0000
  H   H78       1.0  0.74423  0.96923  0.98366  1.0000
  H   H79       1.0  0.46596  0.25230  0.74271  1.0000
  H   H80       1.0  0.03117  0.24571  0.23346  1.0000
  H   H81       1.0  0.21694  0.07528  0.33957  1.0000
  H   H82       1.0  0.28649  0.42682  0.84285  1.0000
  H   H83       1.0  0.92763  0.71094  0.60020  1.0000
  H   H84       1.0  0.57366  0.78637  0.09965  1.0000
  H   H85       1.0  0.71574  0.57600  0.86175  1.0000
  H   H86       1.0  0.78567  0.92744  0.35220  1.0000
  H   H87       1.0  0.42353  0.20914  0.11831  1.0000
  H   H88       1.0  0.07467  0.28596  0.59643  1.0000
  H   H89       1.0  0.40371  0.04792  0.08588  1.0000
  H   H90       1.0  0.10625  0.44474  0.61869  1.0000
  H   H91       1.0  0.94769  0.89966  0.34041  1.0000
  H   H92       1.0  0.54142  0.59041  0.81006  1.0000
  H   H93       1.0  0.91150  0.54065  0.56954  1.0000
  H   H94       1.0  0.60147  0.94664  0.11248  1.0000
  H   H95       1.0  0.44969  0.40157  0.84354  1.0000
  H   H96       1.0  0.04590  0.09431  0.32671  1.0000
  C   C1        1.0  0.14954  0.95576  0.94160  1.0000
  C   C2        1.0  0.35025  0.54674  0.43708  1.0000
  C   C3        1.0  0.04738  0.64850  0.20180  1.0000
  C   C4        1.0  0.45346  0.85020  0.69715  1.0000
  C   C5        1.0  0.64919  0.45695  0.45364  1.0000
  C   C6        1.0  0.84939  0.04595  0.94182  1.0000
  C   C7        1.0  0.54292  0.14814  0.70294  1.0000
  C   C8        1.0  0.95421  0.35016  0.19619  1.0000
  C   C9        1.0  0.17624  0.96132  0.08310  1.0000
  C   C10       1.0  0.32403  0.54087  0.58071  1.0000
  C   C11       1.0  0.04161  0.67521  0.34228  1.0000
  C   C12       1.0  0.45920  0.82400  0.83964  1.0000
  C   C13       1.0  0.67566  0.46294  0.59561  1.0000
  C   C14       1.0  0.82309  0.04055  0.08556  1.0000
  C   C15       1.0  0.53709  0.17399  0.84675  1.0000
  C   C16       1.0  0.95979  0.32417  0.33981  1.0000
  C   C17       1.0  0.17189  0.94011  0.24166  1.0000
  C   C18       1.0  0.32870  0.56213  0.73890  1.0000
  C   C19       1.0  0.06257  0.67110  0.50200  1.0000
  C   C20       1.0  0.43756  0.82824  0.99768  1.0000
  C   C21       1.0  0.67132  0.44170  0.75420  1.0000
  C   C22       1.0  0.82791  0.06196  0.24314  1.0000
  C   C23       1.0  0.55850  0.16944  0.00486  1.0000
  C   C24       1.0  0.93846  0.32907  0.49827  1.0000
  C   C25       1.0  0.14397  0.91340  0.25900  1.0000
  C   C26       1.0  0.35665  0.58887  0.75432  1.0000
  C   C27       1.0  0.08915  0.64324  0.52142  1.0000
  C   C28       1.0  0.41046  0.85572  0.01358  1.0000
  C   C29       1.0  0.64364  0.41469  0.77083  1.0000
  C   C30       1.0  0.85613  0.08844  0.25790  1.0000
  C   C31       1.0  0.58544  0.14181  0.02006  1.0000
  C   C32       1.0  0.91181  0.35700  0.51379  1.0000
  C   C33       1.0  0.11920  0.90709  0.11598  1.0000
  C   C34       1.0  0.38104  0.59538  0.60957  1.0000
  C   C35       1.0  0.09563  0.61841  0.37945  1.0000
  C   C36       1.0  0.40402  0.88000  0.86949  1.0000
  C   C37       1.0  0.61910  0.40798  0.62736  1.0000
  C   C38       1.0  0.88059  0.09451  0.11304  1.0000
  C   C39       1.0  0.59188  0.11773  0.87514  1.0000
  C   C40       1.0  0.90544  0.38108  0.36891  1.0000
  C   C41       1.0  0.12166  0.92756  0.96084  1.0000
  C   C42       1.0  0.37796  0.57516  0.45399  1.0000
  C   C43       1.0  0.07549  0.62077  0.22313  1.0000
  C   C44       1.0  0.42474  0.87748  0.71450  1.0000
  C   C45       1.0  0.62164  0.42838  0.47201  1.0000
  C   C46       1.0  0.87741  0.07411  0.95801  1.0000
  C   C47       1.0  0.57143  0.12065  0.71981  1.0000
  C   C48       1.0  0.92583  0.37781  0.21326  1.0000
  C   C49       1.0  0.15220  0.97879  0.78527  1.0000
  C   C50       1.0  0.34747  0.52351  0.28159  1.0000
  C   C51       1.0  0.02451  0.65098  0.04467  1.0000
  C   C52       1.0  0.47698  0.84772  0.54182  1.0000
  C   C53       1.0  0.65188  0.47995  0.29734  1.0000
  C   C54       1.0  0.84633  0.02260  0.78681  1.0000
  C   C55       1.0  0.51977  0.15122  0.54690  1.0000
  C   C56       1.0  0.97755  0.34715  0.04026  1.0000
  C   C57       1.0  0.18210  0.00381  0.76913  1.0000
  C   C58       1.0  0.31778  0.49822  0.26733  1.0000
  C   C59       1.0  0.99964  0.68075  0.02580  1.0000
  C   C60       1.0  0.50268  0.81856  0.52701  1.0000
  C   C61       1.0  0.68163  0.50517  0.28097  1.0000
  C   C62       1.0  0.81640  0.99757  0.77325  1.0000
  C   C63       1.0  0.49459  0.18086  0.53224  1.0000
  C   C64       1.0  0.00265  0.31745  0.02584  1.0000
  C   C65       1.0  0.20866  0.00836  0.90591  1.0000
  C   C66       1.0  0.29139  0.49361  0.40537  1.0000
  C   C67       1.0  0.99502  0.70741  0.16112  1.0000
  C   C68       1.0  0.50725  0.79227  0.66405  1.0000
  C   C69       1.0  0.70816  0.51002  0.41773  1.0000
  C   C70       1.0  0.79004  0.99334  0.91168  1.0000
  C   C71       1.0  0.49002  0.20682  0.67080  1.0000
  C   C72       1.0  0.00695  0.29132  0.16392  1.0000
  C   C73       1.0  0.20630  0.98773  0.06355  1.0000
  C   C74       1.0  0.29414  0.51418  0.56309  1.0000
  C   C75       1.0  0.01529  0.70508  0.31998  1.0000
  C   C76       1.0  0.48611  0.79451  0.82088  1.0000
  C   C77       1.0  0.70564  0.48951  0.57575  1.0000
  C   C78       1.0  0.79297  0.01410  0.06880  1.0000
  C   C79       1.0  0.51043  0.20364  0.82893  1.0000
  C   C80       1.0  0.98627  0.29427  0.32192  1.0000
  C   C81       1.0  0.23484  0.99266  0.20622  1.0000
  C   C82       1.0  0.26614  0.50873  0.70818  1.0000
  C   C83       1.0  0.00956  0.73335  0.46223  1.0000
  C   C84       1.0  0.49121  0.76634  0.96387  1.0000
  C   C85       1.0  0.73426  0.49430  0.71813  1.0000
  C   C86       1.0  0.76492  0.00897  0.21420  1.0000
  C   C87       1.0  0.50512  0.23141  0.97368  1.0000
  C   C88       1.0  0.99152  0.26646  0.46674  1.0000
  C   C89       1.0  0.23697  0.02597  0.30218  1.0000
  C   C90       1.0  0.26500  0.47540  0.80442  1.0000
  C   C91       1.0  0.97609  0.73392  0.55989  1.0000
  C   C92       1.0  0.52453  0.76516  0.06156  1.0000
  C   C93       1.0  0.73634  0.52726  0.81670  1.0000
  C   C94       1.0  0.76389  0.97584  0.31193  1.0000
  C   C95       1.0  0.47209  0.23184  0.07464  1.0000
  C   C96       1.0  0.02509  0.26528  0.56286  1.0000
  C   C97       1.0  0.26261  0.03048  0.44407  1.0000
  C   C98       1.0  0.23968  0.47035  0.94762  1.0000
  C   C99       1.0  0.97057  0.75955  0.70041  1.0000
  C   C100      1.0  0.52945  0.73957  0.20269  1.0000
  C   C101      1.0  0.76225  0.53136  0.95794  1.0000
  C   C102      1.0  0.73845  0.97083  0.45476  1.0000
  C   C103      1.0  0.46720  0.25747  0.21578  1.0000
  C   C104      1.0  0.03024  0.23996  0.70493  1.0000
  C   C105      1.0  0.28623  0.00184  0.49736  1.0000
  C   C106      1.0  0.21553  0.49849  0.00249  1.0000
  C   C107      1.0  0.99858  0.78443  0.75127  1.0000
  C   C108      1.0  0.50108  0.71505  0.25229  1.0000
  C   C109      1.0  0.78604  0.50259  0.00756  1.0000
  C   C110      1.0  0.71399  0.99886  0.50787  1.0000
  C   C111      1.0  0.49537  0.28240  0.26373  1.0000
  C   C112      1.0  0.00194  0.21559  0.75736  1.0000
  C   C113      1.0  0.28571  0.96722  0.40090  1.0000
  C   C114      1.0  0.21521  0.53316  0.90640  1.0000
  C   C115      1.0  0.03348  0.78514  0.65416  1.0000
  C   C116      1.0  0.46641  0.71474  0.15454  1.0000
  C   C117      1.0  0.78553  0.46833  0.90864  1.0000
  C   C118      1.0  0.71363  0.03340  0.41074  1.0000
  C   C119      1.0  0.52983  0.28320  0.16331  1.0000
  C   C120      1.0  0.96709  0.21515  0.66078  1.0000
  C   C121      1.0  0.26034  0.96302  0.25325  1.0000
  C   C122      1.0  0.24021  0.53787  0.75716  1.0000
  C   C123      1.0  0.03849  0.75988  0.50727  1.0000
  C   C124      1.0  0.46183  0.74021  0.00841  1.0000
  C   C125      1.0  0.75989  0.46456  0.76195  1.0000
  C   C126      1.0  0.73887  0.03808  0.26231  1.0000
  C   C127      1.0  0.53432  0.25783  0.01670  1.0000
  C   C128      1.0  0.96221  0.24042  0.51399  1.0000
  C   C129      1.0  0.26190  0.92908  0.15441  1.0000
  C   C130      1.0  0.23800  0.57192  0.65943  1.0000
  C   C131      1.0  0.07267  0.76227  0.40808  1.0000
  C   C132      1.0  0.42779  0.73825  0.90886  1.0000
  C   C133      1.0  0.76131  0.43091  0.66090  1.0000
  C   C134      1.0  0.73680  0.07209  0.16443  1.0000
  C   C135      1.0  0.56829  0.25999  0.91579  1.0000
  C   C136      1.0  0.92799  0.23810  0.41573  1.0000
  C   C137      1.0  0.28679  0.90073  0.19716  1.0000
  C   C138      1.0  0.21277  0.59983  0.70435  1.0000
  C   C139      1.0  0.10054  0.78792  0.44960  1.0000
  C   C140      1.0  0.39966  0.71280  0.94978  1.0000
  C   C141      1.0  0.78659  0.40266  0.69976  1.0000
  C   C142      1.0  0.71142  0.09996  0.20800  1.0000
  C   C143      1.0  0.59629  0.28570  0.95469  1.0000
  C   C144      1.0  0.90022  0.21225  0.45689  1.0000
  C   C145      1.0  0.31092  0.90519  0.34474  1.0000
  C   C146      1.0  0.18893  0.59487  0.85290  1.0000
  C   C147      1.0  0.09534  0.81206  0.59599  1.0000
  C   C148      1.0  0.40448  0.68844  0.09567  1.0000
  C   C149      1.0  0.81114  0.40675  0.84603  1.0000
  C   C150      1.0  0.68713  0.09492  0.35494  1.0000
  C   C151      1.0  0.59138  0.31029  0.09970  1.0000
  C   C152      1.0  0.90547  0.18795  0.60260  1.0000
  C   C153      1.0  0.31054  0.93750  0.44479  1.0000
  C   C154      1.0  0.19002  0.56248  0.95216  1.0000
  C   C155      1.0  0.06278  0.81084  0.69652  1.0000
  C   C156      1.0  0.43694  0.68919  0.19642  1.0000
  C   C157      1.0  0.81065  0.43862  0.94923  1.0000
  C   C158      1.0  0.68808  0.06256  0.45455  1.0000
  C   C159      1.0  0.55909  0.30918  0.20224  1.0000
  C   C160      1.0  0.93792  0.18933  0.70324  1.0000
  C   C161      1.0  0.12234  0.97800  0.65192  1.0000
  C   C162      1.0  0.37724  0.52405  0.14725  1.0000
  C   C163      1.0  0.02516  0.62120  0.91227  1.0000
  C   C164      1.0  0.47616  0.87714  0.40762  1.0000
  C   C165      1.0  0.62223  0.47889  0.16305  1.0000
  C   C166      1.0  0.87600  0.02279  0.65196  1.0000
  C   C167      1.0  0.52050  0.12189  0.41212  1.0000
  C   C168      1.0  0.97724  0.37655  0.90560  1.0000
  C   C169      1.0  0.38275  0.02535  0.10158  1.0000
  C   C170      1.0  0.12241  0.47113  0.61751  1.0000
  C   C171      1.0  0.97227  0.88098  0.35196  1.0000
  C   C172      1.0  0.52332  0.61466  0.84000  1.0000
  C   C173      1.0  0.88702  0.52255  0.59809  1.0000
  C   C174      1.0  0.61871  0.97234  0.11647  1.0000
  C   C175      1.0  0.47331  0.38178  0.85739  1.0000
  C   C176      1.0  0.02474  0.11635  0.34965  1.0000
  C   C177      1.0  0.99890  0.99934  0.01226  1.0000
  C   C178      1.0  0.50124  0.50058  0.51319  1.0000
  C   C179      1.0  0.00166  0.49931  0.27127  1.0000
  C   C180      1.0  0.49821  0.99984  0.77249  1.0000
  N   N1        1.0  0.12573  0.99351  0.49738  1.0000
  N   N2        1.0  0.37385  0.50758  0.99502  1.0000
  N   N3        1.0  0.00923  0.62462  0.75867  1.0000
  N   N4        1.0  0.49189  0.87354  0.25340  1.0000
  N   N5        1.0  0.62607  0.49443  0.00882  1.0000
  N   N6        1.0  0.87208  0.00723  0.49783  1.0000
  N   N7        1.0  0.50483  0.12556  0.25800  1.0000
  N   N8        1.0  0.99369  0.37302  0.75282  1.0000
  N   N9        1.0  0.38236  0.00259  0.23505  1.0000
  N   N10       1.0  0.11858  0.49683  0.73688  1.0000
  N   N11       1.0  0.99637  0.88295  0.48023  1.0000
  N   N12       1.0  0.50441  0.61777  0.98589  1.0000
  N   N13       1.0  0.88377  0.50345  0.74285  1.0000
  N   N14       1.0  0.61553  0.99738  0.23935  1.0000
  N   N15       1.0  0.49715  0.38293  0.98697  1.0000
  N   N16       1.0  0.00310  0.11726  0.48789  1.0000
  Cl  Cl1       1.0  0.08434  0.87273  0.13715  1.0000
  Cl  Cl2       1.0  0.41616  0.62945  0.62954  1.0000
  Cl  Cl3       1.0  0.12973  0.58358  0.40292  1.0000
  Cl  Cl4       1.0  0.36943  0.91448  0.88938  1.0000
  Cl  Cl5       1.0  0.58460  0.37321  0.64797  1.0000
  Cl  Cl6       1.0  0.91598  0.12835  0.13249  1.0000
  Cl  Cl7       1.0  0.62653  0.08328  0.89373  1.0000
  Cl  Cl8       1.0  0.87126  0.41604  0.38807  1.0000
  Cl  Cl9       1.0  0.34194  0.86908  0.40152  1.0000
  Cl  Cl10      1.0  0.15746  0.63038  0.91209  1.0000
  Cl  Cl11      1.0  0.13081  0.84413  0.65039  1.0000
  Cl  Cl12      1.0  0.36853  0.65671  0.14883  1.0000
  Cl  Cl13      1.0  0.84257  0.37069  0.89759  1.0000
  Cl  Cl14      1.0  0.65504  0.13016  0.41060  1.0000
  Cl  Cl15      1.0  0.62690  0.34261  0.15004  1.0000
  Cl  Cl16      1.0  0.87024  0.15546  0.65575  1.0000
  O   O1        1.0  0.23647  0.03426  0.87554  1.0000
  O   O2        1.0  0.26352  0.46767  0.37632  1.0000
  O   O3        1.0  0.96927  0.73513  0.12845  1.0000
  O   O4        1.0  0.53365  0.76498  0.63475  1.0000
  O   O5        1.0  0.73600  0.53597  0.38659  1.0000
  O   O6        1.0  0.76192  0.96763  0.88417  1.0000
  O   O7        1.0  0.46433  0.23484  0.64306  1.0000
  O   O8        1.0  0.03266  0.26338  0.13457  1.0000
  O   O9        1.0  0.21299  0.05473  0.25713  1.0000
  O   O10       1.0  0.28963  0.44720  0.75845  1.0000
  O   O11       1.0  0.94854  0.70821  0.51748  1.0000
  O   O12       1.0  0.55279  0.79002  0.01789  1.0000
  O   O13       1.0  0.71215  0.55609  0.77541  1.0000
  O   O14       1.0  0.78874  0.94774  0.26737  1.0000
  O   O15       1.0  0.44429  0.20614  0.03495  1.0000
  O   O16       1.0  0.05342  0.28993  0.51720  1.0000
  C   C181      1.0  0.04085  0.96281  0.29654  1.0000
  C   C182      1.0  0.03258  0.99105  0.17429  1.0000
  C  Sn1       1.0  0.05601  0.02033  0.14584  1.0000
  C  Sn2       1.0  0.09046  0.02128  0.24174  1.0000
  C   C183      1.0  0.10062  0.99288  0.36366  1.0000
  C   C184      1.0  0.07484  0.96372  0.39113  1.0000
  H   H97       1.0  0.02092  0.94023  0.31774  1.0000
  O  Te1       1.0  0.04730  0.04832  0.02325  1.0000
  O  Te2       1.0  0.11652  0.05021  0.21585  1.0000
  H   H98       1.0  0.08126  0.94185  0.48571  1.0000
  Mg  Mg1       1.0  0.09185  0.08191  0.03445  1.0000
  C   C185      1.0  0.44331  0.53828  0.86253  1.0000
  C   C186      1.0  0.41021  0.51694  0.87114  1.0000
  C  Sn3       1.0  0.40572  0.48560  0.76210  1.0000
  C  Sn4       1.0  0.43497  0.47550  0.64239  1.0000
  C   C187      1.0  0.46799  0.49702  0.63488  1.0000
  C   C188      1.0  0.47218  0.52834  0.74455  1.0000
  H   H99       1.0  0.44656  0.56250  0.94745  1.0000
  O  Te3       1.0  0.37246  0.46459  0.77236  1.0000
  O  Te4       1.0  0.43123  0.44430  0.53195  1.0000
  H   H100      1.0  0.49782  0.54484  0.73793  1.0000
  Mg  Mg2       1.0  0.38063  0.42451  0.59467  1.0000
  C   C189      1.0  0.03859  0.55468  0.63124  1.0000
  C   C190      1.0  0.01852  0.58834  0.63668  1.0000
  C  Sn5       1.0  0.98828  0.59429  0.52122  1.0000
  C  Sn6       1.0  0.97800  0.56598  0.39821  1.0000
  C   C191      1.0  0.99824  0.53240  0.39390  1.0000
  C   C192      1.0  0.02846  0.52673  0.51000  1.0000
  H   H101      1.0  0.06196  0.55029  0.72113  1.0000
  O  Te5       1.0  0.96854  0.62808  0.52839  1.0000
  O  Te6       1.0  0.94788  0.57119  0.28135  1.0000
  H   H102      1.0  0.04398  0.50067  0.50583  1.0000
  Mg  Mg3       1.0  0.92963  0.62200  0.34193  1.0000
  C   C193      1.0  0.52409  0.90986  0.96593  1.0000
  C   C194      1.0  0.49959  0.90438  0.10779  1.0000
  C  Sn7       1.0  0.47061  0.93002  0.14005  1.0000
  C  Sn8       1.0  0.46653  0.96168  0.02796  1.0000
  C   C195      1.0  0.49118  0.96689  0.88631  1.0000
  C   C196      1.0  0.52009  0.94107  0.85526  1.0000
  H   H103      1.0  0.54645  0.88987  0.94183  1.0000
  O  Te7       1.0  0.44599  0.92415  0.28240  1.0000
  O  Te8       1.0  0.43781  0.98774  0.05715  1.0000
  H   H104      1.0  0.53935  0.94530  0.74535  1.0000
  Mg  Mg4       1.0  0.41131  0.96752  0.26817  1.0000
  C   C197      1.0  0.54149  0.46453  0.80352  1.0000
  C   C198      1.0  0.53439  0.49227  0.67715  1.0000
  C  Sn9       1.0  0.56070  0.52086  0.64791  1.0000
  C  Sn10      1.0  0.59472  0.52160  0.74719  1.0000
  C   C199      1.0  0.60157  0.49370  0.87321  1.0000
  C   C200      1.0  0.57505  0.46523  0.90145  1.0000
  H   H105      1.0  0.52098  0.44249  0.82531  1.0000
  O  Te9       1.0  0.55316  0.54836  0.52119  1.0000
  O  Te10      1.0  0.62151  0.54984  0.72059  1.0000
  H   H106      1.0  0.58056  0.44374  0.99922  1.0000
  Mg  Mg5       1.0  0.59836  0.58108  0.53301  1.0000
  C   C201      1.0  0.90749  0.97478  0.20711  1.0000
  C   C202      1.0  0.90298  0.99911  0.35085  1.0000
  C  Sn11      1.0  0.92766  0.02702  0.38386  1.0000
  C  Sn12      1.0  0.95954  0.03058  0.27061  1.0000
  C   C203      1.0  0.96378  0.00612  0.12709  1.0000
  C   C204      1.0  0.93892  0.97828  0.09530  1.0000
  H   H107      1.0  0.88659  0.95325  0.18245  1.0000
  O  Te11      1.0  0.92273  0.05108  0.52810  1.0000
  O  Te12      1.0  0.98676  0.05824  0.30052  1.0000
  H   H108      1.0  0.94201  0.95948  0.98394  1.0000
  Mg  Mg6       1.0  0.96753  0.08431  0.51419  1.0000
  C   C205      1.0  0.53464  0.04091  0.05956  1.0000
  C   C206      1.0  0.50608  0.03319  0.93498  1.0000
  C  Sn13      1.0  0.47734  0.05912  0.90354  1.0000
  C  Sn14      1.0  0.47687  0.09340  0.99877  1.0000
  C   C207      1.0  0.50558  0.10087  0.12304  1.0000
  C   C208      1.0  0.53420  0.07473  0.15350  1.0000
  H   H109      1.0  0.55679  0.02069  0.08307  1.0000
  O  Te13      1.0  0.44942  0.05094  0.77866  1.0000
  O  Te14      1.0  0.44849  0.11982  0.96992  1.0000
  H   H110      1.0  0.55601  0.08073  0.24988  1.0000
  Mg  Mg7       1.0  0.41666  0.09584  0.78616  1.0000
  C   C209      1.0  0.96325  0.44202  0.62143  1.0000
  C   C210      1.0  0.98443  0.40907  0.62884  1.0000
  C  Sn15      1.0  0.01592  0.40447  0.51895  1.0000
  C  Sn16      1.0  0.02634  0.43346  0.39960  1.0000
  C   C211      1.0  0.00499  0.46633  0.39328  1.0000
  C   C212      1.0  0.97352  0.47064  0.50379  1.0000
  H   H111      1.0  0.93892  0.44537  0.70700  1.0000
  O  Te15      1.0  0.03676  0.37136  0.52801  1.0000
  O  Te16      1.0  0.05770  0.42960  0.28832  1.0000
  H   H112      1.0  0.95714  0.49617  0.49811  1.0000
  Mg  Mg8       1.0  0.07715  0.37928  0.34952  1.0000
  C   C213      1.0  0.32060  0.98731  0.93586  1.0000
  C   C214      1.0  0.34857  0.01234  0.95608  1.0000
  C  Sn17      1.0  0.35772  0.03741  0.82019  1.0000
  C  Sn18      1.0  0.33627  0.03736  0.66129  1.0000
  C   C215      1.0  0.30620  0.01223  0.64240  1.0000
  C   C216      1.0  0.29943  0.98725  0.77920  1.0000
  H   H113      1.0  0.31409  0.96799  0.04173  1.0000
  O  Te17      1.0  0.38789  0.06222  0.84255  1.0000
  O  Te18      1.0  0.34480  0.06213  0.52339  1.0000
  H   H114      1.0  0.27611  0.96789  0.76355  1.0000
  Mg  Mg9       1.0  0.38853  0.09060  0.61669  1.0000
  C   C217      1.0  0.14737  0.45114  0.26951  1.0000
  C   C218      1.0  0.14820  0.46878  0.43501  1.0000
  C  Sn19      1.0  0.17093  0.50032  0.46165  1.0000
  C  Sn20      1.0  0.19320  0.51441  0.31970  1.0000
  C   C219      1.0  0.19214  0.49657  0.15460  1.0000
  C   C220      1.0  0.16931  0.46502  0.12942  1.0000
  H   H115      1.0  0.12969  0.42674  0.24998  1.0000
  O  Te19      1.0  0.17144  0.51760  0.62786  1.0000
  O  Te20      1.0  0.21615  0.54589  0.34266  1.0000
  H   H116      1.0  0.16865  0.45138  0.00123  1.0000
  Mg  Mg10      1.0  0.20727  0.55970  0.59374  1.0000
  C   C221      1.0  0.01782  0.81002  0.10332  1.0000
  C   C222      1.0  0.99668  0.80663  0.94652  1.0000
  C  Sn21      1.0  0.96566  0.82986  0.91565  1.0000
  C  Sn22      1.0  0.95568  0.85697  0.04437  1.0000
  C   C223      1.0  0.97664  0.86017  0.20076  1.0000
  C   C224      1.0  0.00762  0.83677  0.23032  1.0000
  H   H117      1.0  0.04181  0.79193  0.12617  1.0000
  O  Te21      1.0  0.94523  0.82607  0.75831  1.0000
  O  Te22      1.0  0.92481  0.88055  0.01688  1.0000
  H   H118      1.0  0.02370  0.83943  0.35168  1.0000
  Mg  Mg11      1.0  0.90540  0.86467  0.78163  1.0000
  C   C225      1.0  0.48432  0.69185  0.61089  1.0000
  C   C226      1.0  0.50280  0.69286  0.44691  1.0000
  C  Sn23      1.0  0.53009  0.66602  0.40519  1.0000
  C  Sn24      1.0  0.53898  0.63768  0.53022  1.0000
  C   C227      1.0  0.52032  0.63689  0.69386  1.0000
  C   C228      1.0  0.49306  0.66389  0.73426  1.0000
  H   H119      1.0  0.46322  0.71272  0.64213  1.0000
  O  Te23      1.0  0.54829  0.66745  0.24077  1.0000
  O  Te24      1.0  0.56613  0.61051  0.49193  1.0000
  H   H120      1.0  0.47875  0.66309  0.86119  1.0000
  Mg  Mg12      1.0  0.58322  0.62422  0.25014  1.0000
  C   C229      1.0  0.86232  0.54212  0.25118  1.0000
  C   C230      1.0  0.86029  0.52653  0.42103  1.0000
  C  Sn25      1.0  0.83292  0.49951  0.46053  1.0000
  C  Sn26      1.0  0.80716  0.48793  0.32722  1.0000
  C   C231      1.0  0.80944  0.50368  0.15767  1.0000
  C   C232      1.0  0.83693  0.53071  0.11960  1.0000
  H   H121      1.0  0.88361  0.56301  0.22168  1.0000
  O  Te25      1.0  0.83128  0.48423  0.63092  1.0000
  O  Te26      1.0  0.77953  0.46097  0.36308  1.0000
  H   H122      1.0  0.83812  0.54277  0.98805  1.0000
  Mg  Mg13      1.0  0.78862  0.44838  0.61528  1.0000
  C   C233      1.0  0.68867  0.01847  0.86039  1.0000
  C   C234      1.0  0.69429  0.99758  0.70440  1.0000
  C  Sn27      1.0  0.67138  0.96622  0.67635  1.0000
  C  Sn28      1.0  0.64450  0.95565  0.80710  1.0000
  C   C235      1.0  0.64121  0.97675  0.96266  1.0000
  C   C236      1.0  0.66215  0.00807  0.98940  1.0000
  H   H123      1.0  0.70650  0.04272  0.88105  1.0000
  O  Te27      1.0  0.67524  0.94566  0.51977  1.0000
  O  Te28      1.0  0.62124  0.92444  0.78244  1.0000
  H   H124      1.0  0.65982  0.02424  0.11014  1.0000
  Mg  Mg14      1.0  0.63712  0.90535  0.54720  1.0000
  C   C237      1.0  0.45391  0.34111  0.43938  1.0000
  C   C238      1.0  0.48260  0.31491  0.41137  1.0000
  C  Sn29      1.0  0.50872  0.30728  0.54531  1.0000
  C  Sn30      1.0  0.50599  0.32627  0.71022  1.0000
  C   C239      1.0  0.47718  0.35241  0.73698  1.0000
  C   C240      1.0  0.45119  0.35984  0.60202  1.0000
  H   H125      1.0  0.43380  0.34684  0.33500  1.0000
  O  Te29      1.0  0.53721  0.28103  0.51508  1.0000
  O  Te30      1.0  0.53172  0.31917  0.84639  1.0000
  H   H126      1.0  0.42897  0.38011  0.62379  1.0000
  Mg  Mg15      1.0  0.56556  0.28099  0.74147  1.0000
  C   C241      1.0  0.98300  0.19085  0.11107  1.0000
  C   C242      1.0  0.00288  0.19339  0.95220  1.0000
  C  Sn31      1.0  0.03240  0.16852  0.91716  1.0000
  C  Sn32      1.0  0.04212  0.14062  0.04376  1.0000
  C   C243      1.0  0.02164  0.13830  0.20224  1.0000
  C   C244      1.0  0.99217  0.16333  0.23597  1.0000
  H   H127      1.0  0.96018  0.21020  0.13715  1.0000
  O  Te31      1.0  0.05238  0.17145  0.75780  1.0000
  O  Te32      1.0  0.07148  0.11540  0.01209  1.0000
  H   H128      1.0  0.97646  0.16135  0.35894  1.0000
  Mg  Mg16      1.0  0.09003  0.13065  0.77543  1.0000
  C   C245      1.0  0.44635  0.03721  0.40445  1.0000
  C   C246      1.0  0.41695  0.01232  0.36587  1.0000
  C  Sn33      1.0  0.41181  0.98189  0.47747  1.0000
  C  Sn34      1.0  0.43443  0.97635  0.63047  1.0000
  C   C247      1.0  0.46162  0.00142  0.66797  1.0000
  C   C248      1.0  0.46866  0.03177  0.55536  1.0000
  H   H129      1.0  0.45178  0.06070  0.31738  1.0000
  O  Te33      1.0  0.38234  0.95729  0.43693  1.0000
  O  Te34      1.0  0.42777  0.94617  0.74431  1.0000
  H   H130      1.0  0.49141  0.05104  0.58533  1.0000
  Mg  Mg17      1.0  0.38435  0.92031  0.63263  1.0000
  C   C249      1.0  0.03665  0.46602  0.96215  1.0000
  C   C250      1.0  0.03604  0.48800  0.11549  1.0000
  C  Sn35      1.0  0.06372  0.51526  0.14467  1.0000
  C  Sn36      1.0  0.09291  0.52055  0.01772  1.0000
  C   C251      1.0  0.09325  0.49843  0.86468  1.0000
  C   C252      1.0  0.06542  0.47123  0.83683  1.0000
  H   H131      1.0  0.01510  0.44498  0.94054  1.0000
  O  Te35      1.0  0.06231  0.53698  0.29862  1.0000
  O  Te36      1.0  0.12092  0.54760  0.04353  1.0000
  H   H132      1.0  0.06618  0.45422  0.71803  1.0000
  Mg  Mg18      1.0  0.10688  0.57026  0.27417  1.0000
  C   C253      1.0  0.02440  0.92604  0.86795  1.0000
  C   C254      1.0  0.00381  0.95921  0.88525  1.0000
  C  Sn37      1.0  0.97534  0.96785  0.76387  1.0000
  C  Sn38      1.0  0.96738  0.94275  0.62271  1.0000
  C   C255      1.0  0.98812  0.90963  0.60663  1.0000
  C   C256      1.0  0.01656  0.90127  0.72880  1.0000
  H   H133      1.0  0.04639  0.91956  0.96252  1.0000
  O  Te37      1.0  0.95292  0.00111  0.78307  1.0000
  O  Te38      1.0  0.93906  0.95069  0.49957  1.0000
  H   H134      1.0  0.03248  0.87558  0.71544  1.0000
  Mg  Mg19      1.0  0.91919  0.99953  0.58168  1.0000
  C   C257      1.0  0.53985  0.55476  0.15341  1.0000
  C   C258      1.0  0.51383  0.58288  0.11311  1.0000
  C  Sn39      1.0  0.48180  0.58792  0.21903  1.0000
  C  Sn40      1.0  0.47579  0.56433  0.36800  1.0000
  C   C259      1.0  0.50200  0.53630  0.40728  1.0000
  C   C260      1.0  0.53395  0.53149  0.30036  1.0000
  H   H135      1.0  0.56459  0.55105  0.07076  1.0000
  O  Te39      1.0  0.45608  0.61615  0.17684  1.0000
  O  Te40      1.0  0.44402  0.56877  0.47614  1.0000
  H   H136      1.0  0.55411  0.50973  0.33167  1.0000
  Mg  Mg20      1.0  0.41708  0.61117  0.36428  1.0000
  C   C261      1.0  0.92999  0.47134  0.11544  1.0000
  C   C262      1.0  0.96173  0.49403  0.14132  1.0000
  C  Sn41      1.0  0.96802  0.52511  0.03245  1.0000
  C  Sn42      1.0  0.94159  0.53358  0.89528  1.0000
  C   C263      1.0  0.90990  0.51072  0.87056  1.0000
  C   C264      1.0  0.90390  0.47968  0.98022  1.0000
  H   H137      1.0  0.92532  0.44734  0.20035  1.0000
  O  Te41      1.0  0.99988  0.54747  0.06009  1.0000
  O  Te42      1.0  0.94718  0.56448  0.78460  1.0000
  H   H138      1.0  0.87930  0.46213  0.96023  1.0000
  Mg  Mg21      1.0  0.99482  0.58652  0.87468  1.0000
  C   C265      1.0  0.53384  0.96631  0.46392  1.0000
  C   C266      1.0  0.53260  0.98855  0.61644  1.0000
  C  Sn43      1.0  0.55799  0.01600  0.64511  1.0000
  C  Sn44      1.0  0.58725  0.02122  0.51849  1.0000
  C   C267      1.0  0.59036  0.99885  0.36627  1.0000
  C   C268      1.0  0.56268  0.97146  0.33893  1.0000
  H   H139      1.0  0.51241  0.94513  0.44270  1.0000
  O  Te43      1.0  0.55634  0.03796  0.79824  1.0000
  O  Te44      1.0  0.61511  0.04845  0.54380  1.0000
  H   H140      1.0  0.56363  0.95426  0.22077  1.0000
  Mg  Mg22      1.0  0.60076  0.07141  0.77336  1.0000
  C   C269      1.0  0.46791  0.46558  0.20322  1.0000
  C   C270      1.0  0.49004  0.46676  0.35653  1.0000
  C  Sn45      1.0  0.51700  0.43902  0.38808  1.0000
  C  Sn46      1.0  0.52184  0.40960  0.26357  1.0000
  C   C271      1.0  0.49958  0.40868  0.11054  1.0000
  C   C272      1.0  0.47268  0.43657  0.08031  1.0000
  H   H141      1.0  0.44711  0.48716  0.17977  1.0000
  O  Te45      1.0  0.53886  0.44062  0.54196  1.0000
  O  Te46      1.0  0.54859  0.38153  0.29177  1.0000
  H   H142      1.0  0.45517  0.43567  0.96154  1.0000
  Mg  Mg23      1.0  0.57159  0.39589  0.52129  1.0000
  C   C273      1.0  0.97199  0.08589  0.78904  1.0000
  C   C274      1.0  0.99889  0.09096  0.65516  1.0000
  C  Sn47      1.0  0.02784  0.06486  0.63173  1.0000
  C  Sn48      1.0  0.02981  0.03312  0.74461  1.0000
  C   C275      1.0  0.00274  0.02829  0.87808  1.0000
  C   C276      1.0  0.97390  0.05458  0.90039  1.0000
  H   H143      1.0  0.94966  0.10622  0.80626  1.0000
  O  Te47      1.0  0.05449  0.07036  0.49735  1.0000
  O  Te48      1.0  0.05843  0.00659  0.72408  1.0000
  H   H144      1.0  0.95345  0.05062  0.00399  1.0000
  Mg  Mg24      1.0  0.08817  0.02643  0.52192  1.0000
