data_image0
_chemical_formula_structural       H128C228N16Cl16O16SnCSn2CSnTe4Mg2SnCSn2CSnTe4Mg2SnCSn2CSnTe4Mg2SnCSn2CSnTe4Mg2SnCSn2CSnTe4Mg2SnCSn2CSnTe4Mg2SnCSn2CSnTe4Mg2SnCSn2CSnTe4Mg2
_chemical_formula_sum              "H128 C244 N16 Cl16 O16 Sn32 Te32 Mg16"
_cell_length_a       29.4121
_cell_length_b       29.6706
_cell_length_c       7.82263
_cell_angle_alpha    90.1608
_cell_angle_beta     89.947
_cell_angle_gamma    89.8708

_symmetry_space_group_name_H-M    'P1'
_space_group_IT_number       1

loop_
  _space_group_symop_operation_xyz
  'x, y, z'

loop_
  _atom_site_type_symbol
  _atom_site_label
  _atom_site_symmetry_multiplicity
  _atom_site_fract_x
  _atom_site_fract_y
  _atom_site_fract_z
  _atom_site_occupancy
  H   H1        1.0  0.78717  0.94180  0.70309  1.0000
  H   H2        1.0  0.71838  0.55902  0.24370  1.0000
  H   H3        1.0  0.05796  0.29185  0.92605  1.0000
  H   H4        1.0  0.44315  0.21329  0.47496  1.0000
  H   H5        1.0  0.29488  0.44120  0.17196  1.0000
  H   H6        1.0  0.21713  0.05829  0.74469  1.0000
  H   H7        1.0  0.55764  0.78756  0.45622  1.0000
  H   H8        1.0  0.93668  0.71964  0.98831  1.0000
  H   H9        1.0  0.79000  0.87513  0.51048  1.0000
  H   H10       1.0  0.71356  0.62752  0.06281  1.0000
  H   H11       1.0  0.12510  0.29307  0.73235  1.0000
  H   H12       1.0  0.37590  0.20554  0.28538  1.0000
  H   H13       1.0  0.29749  0.37499  0.97702  1.0000
  H   H14       1.0  0.21065  0.12668  0.56435  1.0000
  H   H15       1.0  0.62496  0.79035  0.26415  1.0000
  H   H16       1.0  0.86755  0.71533  0.80685  1.0000
  H   H17       1.0  0.67149  0.92450  0.24294  1.0000
  H   H18       1.0  0.82842  0.58217  0.76885  1.0000
  H   H19       1.0  0.07531  0.17503  0.47247  1.0000
  H   H20       1.0  0.41641  0.32372  0.00815  1.0000
  H   H21       1.0  0.17894  0.42400  0.71337  1.0000
  H   H22       1.0  0.32501  0.08315  0.26406  1.0000
  H   H23       1.0  0.57608  0.67344  0.99362  1.0000
  H   H24       1.0  0.91383  0.82876  0.51440  1.0000
  H   H25       1.0  0.63118  0.06089  0.54151  1.0000
  H   H26       1.0  0.86935  0.43953  0.02737  1.0000
  H   H27       1.0  0.94424  0.13019  0.80086  1.0000
  H   H28       1.0  0.55646  0.37002  0.28239  1.0000
  H   H29       1.0  0.13257  0.55462  0.03429  1.0000
  H   H30       1.0  0.37091  0.94251  0.52553  1.0000
  H   H31       1.0  0.44278  0.62829  0.30832  1.0000
  H   H32       1.0  0.05749  0.86869  0.77523  1.0000
  H   H33       1.0  0.79054  0.97012  0.23057  1.0000
  H   H34       1.0  0.71649  0.52658  0.75368  1.0000
  H   H35       1.0  0.03608  0.29727  0.45817  1.0000
  H   H36       1.0  0.47141  0.21164  0.98664  1.0000
  H   H37       1.0  0.29731  0.46404  0.70542  1.0000
  H   H38       1.0  0.21355  0.02398  0.24737  1.0000
  H   H39       1.0  0.53422  0.79236  0.98133  1.0000
  H   H40       1.0  0.96730  0.71857  0.49751  1.0000
  H   H41       1.0  0.75970  0.07436  0.59875  1.0000
  H   H42       1.0  0.74236  0.42735  0.10361  1.0000
  H   H43       1.0  0.92451  0.25914  0.84652  1.0000
  H   H44       1.0  0.57377  0.24377  0.34865  1.0000
  H   H45       1.0  0.26178  0.57480  0.09280  1.0000
  H   H46       1.0  0.24337  0.92710  0.59525  1.0000
  H   H47       1.0  0.42503  0.75738  0.36100  1.0000
  H   H48       1.0  0.07040  0.74250  0.85331  1.0000
  H   H49       1.0  0.79850  0.14861  0.60807  1.0000
  H   H50       1.0  0.70114  0.35458  0.10245  1.0000
  H   H51       1.0  0.84789  0.29407  0.86702  1.0000
  H   H52       1.0  0.64789  0.20353  0.34603  1.0000
  H   H53       1.0  0.29663  0.65079  0.11681  1.0000
  H   H54       1.0  0.20217  0.85438  0.58597  1.0000
  H   H55       1.0  0.34959  0.79501  0.37432  1.0000
  H   H56       1.0  0.14359  0.70058  0.85707  1.0000
  H   H57       1.0  0.85380  0.11776  0.10109  1.0000
  H   H58       1.0  0.64660  0.38277  0.59990  1.0000
  H   H59       1.0  0.88167  0.35176  0.35311  1.0000
  H   H60       1.0  0.61887  0.14586  0.83585  1.0000
  H   H61       1.0  0.35240  0.61670  0.60587  1.0000
  H   H62       1.0  0.14510  0.88039  0.08169  1.0000
  H   H63       1.0  0.38166  0.85064  0.86561  1.0000
  H   H64       1.0  0.11282  0.64952  0.35687  1.0000
  H   H65       1.0  0.60769  0.03522  0.29516  1.0000
  H   H66       1.0  0.89372  0.47187  0.79036  1.0000
  H   H67       1.0  0.96967  0.10504  0.55148  1.0000
  H   H68       1.0  0.52511  0.39233  0.04063  1.0000
  H   H69       1.0  0.10885  0.53046  0.78953  1.0000
  H   H70       1.0  0.39415  0.97526  0.29037  1.0000
  H   H71       1.0  0.46903  0.60414  0.06100  1.0000
  H   H72       1.0  0.02546  0.89255  0.53884  1.0000
  H   H73       1.0  0.86239  0.07034  0.29200  1.0000
  H   H74       1.0  0.63676  0.43016  0.78956  1.0000
  H   H75       1.0  0.93135  0.36512  0.52807  1.0000
  H   H76       1.0  0.57024  0.13434  0.02291  1.0000
  H   H77       1.0  0.36293  0.56881  0.78622  1.0000
  H   H78       1.0  0.13368  0.92767  0.27364  1.0000
  H   H79       1.0  0.43089  0.86324  0.04387  1.0000
  H   H80       1.0  0.06496  0.63869  0.53584  1.0000
  H   H81       1.0  0.94238  0.07757  0.33499  1.0000
  H   H82       1.0  0.08002  0.55693  0.57649  1.0000
  H   H83       1.0  0.42063  0.94782  0.08764  1.0000
  H   H84       1.0  0.93796  0.02002  0.11113  1.0000
  H   H85       1.0  0.02189  0.56229  0.35347  1.0000
  H   H86       1.0  0.47897  0.94411  0.86681  1.0000
  H   H87       1.0  0.06620  0.06389  0.90595  1.0000
  H   H88       1.0  0.06427  0.43439  0.14711  1.0000
  H   H89       1.0  0.42792  0.06629  0.64184  1.0000
  H   H90       1.0  0.07112  0.12166  0.13487  1.0000
  H   H91       1.0  0.12243  0.42840  0.37473  1.0000
  H   H92       1.0  0.36882  0.07062  0.86692  1.0000
  H   H93       1.0  0.63223  0.43229  0.12235  1.0000
  H   H94       1.0  0.93556  0.36762  0.86387  1.0000
  H   H95       1.0  0.36622  0.56337  0.12390  1.0000
  H   H96       1.0  0.13214  0.93113  0.62085  1.0000
  H   H97       1.0  0.43642  0.86649  0.38480  1.0000
  H   H98       1.0  0.57200  0.43502  0.34145  1.0000
  H   H99       1.0  0.93669  0.42730  0.08484  1.0000
  H   H100      1.0  0.42521  0.56054  0.34727  1.0000
  H   H101      1.0  0.07211  0.93466  0.84130  1.0000
  H   H102      1.0  0.43851  0.92740  0.60033  1.0000
  H   H103      1.0  0.52354  0.55989  0.13430  1.0000
  H   H104      1.0  0.05736  0.48282  0.86095  1.0000
  H   H105      1.0  0.48129  0.44129  0.11770  1.0000
  H   H106      1.0  0.02036  0.05616  0.61723  1.0000
  H   H107      1.0  0.55739  0.98224  0.36072  1.0000
  H   H108      1.0  0.58573  0.55911  0.92249  1.0000
  H   H109      1.0  0.05869  0.42113  0.64824  1.0000
  H   H110      1.0  0.42035  0.44199  0.90013  1.0000
  H   H111      1.0  0.08201  0.05459  0.40330  1.0000
  H   H112      1.0  0.55775  0.91955  0.15312  1.0000
  H   H113      1.0  0.69763  0.06227  0.91522  1.0000
  H   H114      1.0  0.80587  0.43208  0.40601  1.0000
  H   H115      1.0  0.94389  0.19812  0.16819  1.0000
  H   H116      1.0  0.56190  0.30700  0.66331  1.0000
  H   H117      1.0  0.16637  0.58681  0.27818  1.0000
  H   H118      1.0  0.30754  0.93362  0.90519  1.0000
  H   H119      1.0  0.43945  0.69552  0.67720  1.0000
  H   H120      1.0  0.06296  0.80678  0.15819  1.0000
  H   H121      1.0  0.73230  0.93224  0.09732  1.0000
  H   H122      1.0  0.80881  0.53868  0.56332  1.0000
  H   H123      1.0  0.06275  0.22191  0.12210  1.0000
  H   H124      1.0  0.46053  0.30597  0.80211  1.0000
  H   H125      1.0  0.22367  0.43749  0.36434  1.0000
  H   H126      1.0  0.30755  0.03746  0.05863  1.0000
  H   H127      1.0  0.55996  0.71583  0.64931  1.0000
  H   H128      1.0  0.95745  0.81057  0.30881  1.0000
  C   C1        1.0  0.69520  0.96696  0.44883  1.0000
  C   C2        1.0  0.80638  0.53587  0.96657  1.0000
  C   C3        1.0  0.03416  0.19738  0.68528  1.0000
  C   C4        1.0  0.46327  0.30297  0.20698  1.0000
  C   C5        1.0  0.20042  0.46472  0.92756  1.0000
  C   C6        1.0  0.30455  0.03654  0.46316  1.0000
  C   C7        1.0  0.53435  0.69473  0.20610  1.0000
  C   C8        1.0  0.96031  0.80658  0.71219  1.0000
  C   C9        1.0  0.72677  0.97055  0.58798  1.0000
  C   C10       1.0  0.77649  0.53079  0.11068  1.0000
  C   C11       1.0  0.03050  0.22966  0.82237  1.0000
  C   C12       1.0  0.46903  0.27300  0.34927  1.0000
  C   C13       1.0  0.23243  0.46842  0.06621  1.0000
  C   C14       1.0  0.27495  0.03073  0.60774  1.0000
  C   C15       1.0  0.53028  0.72631  0.34523  1.0000
  C   C16       1.0  0.96529  0.77688  0.85562  1.0000
  C   C17       1.0  0.76187  0.93773  0.60306  1.0000
  C   C18       1.0  0.74229  0.56385  0.13945  1.0000
  C   C19       1.0  0.06252  0.26549  0.83055  1.0000
  C   C20       1.0  0.43764  0.23718  0.37194  1.0000
  C   C21       1.0  0.26865  0.43663  0.07561  1.0000
  C   C22       1.0  0.24036  0.06328  0.63837  1.0000
  C   C23       1.0  0.56240  0.76192  0.35819  1.0000
  C   C24       1.0  0.93193  0.74319  0.88373  1.0000
  C   C25       1.0  0.76367  0.90061  0.49647  1.0000
  C   C26       1.0  0.73957  0.60210  0.03990  1.0000
  C   C27       1.0  0.09969  0.26663  0.72234  1.0000
  C   C28       1.0  0.40008  0.23280  0.26758  1.0000
  C   C29       1.0  0.27054  0.39996  0.96660  1.0000
  C   C30       1.0  0.23677  0.10153  0.53923  1.0000
  C   C31       1.0  0.59973  0.76384  0.25103  1.0000
  C   C32       1.0  0.89335  0.74078  0.78383  1.0000
  C   C33       1.0  0.72994  0.89549  0.36955  1.0000
  C   C34       1.0  0.77179  0.60854  0.90851  1.0000
  C   C35       1.0  0.10493  0.23239  0.59834  1.0000
  C   C36       1.0  0.39253  0.26516  0.13878  1.0000
  C   C37       1.0  0.23662  0.39478  0.84073  1.0000
  C   C38       1.0  0.26835  0.10849  0.40600  1.0000
  C   C39       1.0  0.60516  0.73043  0.12398  1.0000
  C   C40       1.0  0.88699  0.77278  0.65289  1.0000
  C   C41       1.0  0.69692  0.92810  0.34270  1.0000
  C   C42       1.0  0.80431  0.57622  0.87098  1.0000
  C   C43       1.0  0.07219  0.19954  0.57475  1.0000
  C   C44       1.0  0.42330  0.29939  0.10777  1.0000
  C   C45       1.0  0.20325  0.42705  0.81666  1.0000
  C   C46       1.0  0.30131  0.07673  0.36710  1.0000
  C   C47       1.0  0.57269  0.69748  0.09736  1.0000
  C   C48       1.0  0.91969  0.80478  0.61605  1.0000
  C   C49       1.0  0.66215  0.00236  0.42648  1.0000
  C   C50       1.0  0.83800  0.49997  0.92972  1.0000
  C   C51       1.0  0.99965  0.16306  0.67106  1.0000
  C   C52       1.0  0.49805  0.33612  0.17572  1.0000
  C   C53       1.0  0.16594  0.49902  0.91059  1.0000
  C   C54       1.0  0.33728  0.00159  0.42694  1.0000
  C   C55       1.0  0.49964  0.66081  0.18688  1.0000
  C   C56       1.0  0.99657  0.83779  0.67677  1.0000
  C   C57       1.0  0.65701  0.03483  0.55390  1.0000
  C   C58       1.0  0.84440  0.46592  0.05001  1.0000
  C   C59       1.0  0.96897  0.15733  0.80472  1.0000
  C   C60       1.0  0.53114  0.34384  0.30020  1.0000
  C   C61       1.0  0.16029  0.53031  0.04211  1.0000
  C   C62       1.0  0.34493  0.96794  0.54788  1.0000
  C   C63       1.0  0.46788  0.65501  0.31683  1.0000
  C   C64       1.0  0.03074  0.84422  0.79794  1.0000
  C   C65       1.0  0.68496  0.03527  0.69926  1.0000
  C   C66       1.0  0.81836  0.46402  0.20004  1.0000
  C   C67       1.0  0.96874  0.18611  0.94754  1.0000
  C   C68       1.0  0.53325  0.31760  0.44884  1.0000
  C   C69       1.0  0.18923  0.53128  0.18478  1.0000
  C   C70       1.0  0.31899  0.96535  0.69805  1.0000
  C   C71       1.0  0.46688  0.68329  0.46107  1.0000
  C   C72       1.0  0.03223  0.81855  0.94806  1.0000
  C   C73       1.0  0.72204  0.00601  0.71042  1.0000
  C   C74       1.0  0.78220  0.49378  0.22497  1.0000
  C   C75       1.0  0.99622  0.22442  0.95072  1.0000
  C   C76       1.0  0.50516  0.28022  0.46740  1.0000
  C   C77       1.0  0.22716  0.50301  0.19266  1.0000
  C   C78       1.0  0.28170  0.99378  0.72151  1.0000
  C   C79       1.0  0.49521  0.72089  0.47043  1.0000
  C   C80       1.0  0.00242  0.78263  0.97072  1.0000
  C   C81       1.0  0.75500  0.01356  0.85004  1.0000
  C   C82       1.0  0.75028  0.48496  0.36769  1.0000
  C   C83       1.0  0.98863  0.25769  0.08928  1.0000
  C   C84       1.0  0.51474  0.24861  0.60901  1.0000
  C   C85       1.0  0.26007  0.51062  0.33288  1.0000
  C   C86       1.0  0.24966  0.98373  0.86269  1.0000
  C   C87       1.0  0.48732  0.75382  0.60997  1.0000
  C   C88       1.0  0.01102  0.75126  0.11397  1.0000
  C   C89       1.0  0.75824  0.98398  0.98791  1.0000
  C   C90       1.0  0.74946  0.51252  0.51278  1.0000
  C   C91       1.0  0.01997  0.26311  0.22147  1.0000
  C   C92       1.0  0.48666  0.24688  0.75271  1.0000
  C   C93       1.0  0.26508  0.47956  0.46488  1.0000
  C   C94       1.0  0.24803  0.01069  0.00917  1.0000
  C   C95       1.0  0.51805  0.75849  0.74459  1.0000
  C   C96       1.0  0.98281  0.75109  0.25787  1.0000
  C   C97       1.0  0.78730  0.99392  0.12557  1.0000
  C   C98       1.0  0.71807  0.50364  0.64492  1.0000
  C   C99       1.0  0.01079  0.29273  0.35821  1.0000
  C   C100      1.0  0.49526  0.21464  0.88079  1.0000
  C   C101      1.0  0.29344  0.48905  0.60515  1.0000
  C   C102      1.0  0.21591  0.00127  0.13812  1.0000
  C   C103      1.0  0.50905  0.78842  0.88055  1.0000
  C   C104      1.0  0.99098  0.71990  0.39056  1.0000
  C   C105      1.0  0.81321  0.03299  0.13103  1.0000
  C   C106      1.0  0.68929  0.46649  0.64136  1.0000
  C   C107      1.0  0.97009  0.31648  0.36915  1.0000
  C   C108      1.0  0.53332  0.18674  0.87665  1.0000
  C   C109      1.0  0.31646  0.52972  0.62002  1.0000
  C   C110      1.0  0.18733  0.96404  0.13068  1.0000
  C   C111      1.0  0.46900  0.81327  0.88842  1.0000
  C   C112      1.0  0.02841  0.69116  0.38909  1.0000
  C   C113      1.0  0.80982  0.06526  0.99478  1.0000
  C   C114      1.0  0.69224  0.43492  0.50131  1.0000
  C   C115      1.0  0.93590  0.31075  0.23903  1.0000
  C   C116      1.0  0.56571  0.19104  0.73936  1.0000
  C   C117      1.0  0.31128  0.56340  0.48913  1.0000
  C   C118      1.0  0.19112  0.93297  0.98932  1.0000
  C   C119      1.0  0.43541  0.80832  0.75563  1.0000
  C   C120      1.0  0.06070  0.69385  0.25106  1.0000
  C   C121      1.0  0.78144  0.05398  0.85113  1.0000
  C   C122      1.0  0.72162  0.44607  0.36011  1.0000
  C   C123      1.0  0.94680  0.28237  0.09511  1.0000
  C   C124      1.0  0.55446  0.22086  0.60069  1.0000
  C   C125      1.0  0.28380  0.55251  0.34262  1.0000
  C   C126      1.0  0.22126  0.94473  0.85106  1.0000
  C   C127      1.0  0.44627  0.77969  0.61227  1.0000
  C   C128      1.0  0.05021  0.72264  0.10858  1.0000
  C   C129      1.0  0.77944  0.08408  0.71021  1.0000
  C   C130      1.0  0.72235  0.41743  0.21403  1.0000
  C   C131      1.0  0.91509  0.27865  0.95890  1.0000
  C   C132      1.0  0.58386  0.22310  0.45666  1.0000
  C   C133      1.0  0.28042  0.58424  0.20739  1.0000
  C   C134      1.0  0.22278  0.91667  0.70348  1.0000
  C   C135      1.0  0.41544  0.77711  0.47275  1.0000
  C   C136      1.0  0.07985  0.72280  0.96469  1.0000
  C   C137      1.0  0.80112  0.12512  0.71390  1.0000
  C   C138      1.0  0.69933  0.37716  0.21183  1.0000
  C   C139      1.0  0.87269  0.29819  0.96865  1.0000
  C   C140      1.0  0.62483  0.20069  0.45394  1.0000
  C   C141      1.0  0.30003  0.62625  0.21884  1.0000
  C   C142      1.0  0.19973  0.87640  0.69687  1.0000
  C   C143      1.0  0.37365  0.79799  0.47899  1.0000
  C   C144      1.0  0.12036  0.69945  0.96509  1.0000
  C   C145      1.0  0.82669  0.13704  0.85964  1.0000
  C   C146      1.0  0.67369  0.36460  0.35645  1.0000
  C   C147      1.0  0.86081  0.32296  0.11630  1.0000
  C   C148      1.0  0.63733  0.17435  0.59621  1.0000
  C   C149      1.0  0.32464  0.63759  0.36755  1.0000
  C   C150      1.0  0.17324  0.86332  0.83867  1.0000
  C   C151      1.0  0.36159  0.82280  0.62633  1.0000
  C   C152      1.0  0.13194  0.67428  0.11125  1.0000
  C   C153      1.0  0.83250  0.10754  0.99462  1.0000
  C   C154      1.0  0.66831  0.39326  0.49507  1.0000
  C   C155      1.0  0.89191  0.33082  0.24575  1.0000
  C   C156      1.0  0.60817  0.16795  0.73305  1.0000
  C   C157      1.0  0.33164  0.60680  0.49742  1.0000
  C   C158      1.0  0.16729  0.89132  0.97892  1.0000
  C   C159      1.0  0.39203  0.82960  0.75873  1.0000
  C   C160      1.0  0.10267  0.67000  0.24853  1.0000
  C   C161      1.0  0.63289  0.00808  0.27836  1.0000
  C   C162      1.0  0.86519  0.49549  0.77616  1.0000
  C   C163      1.0  0.99418  0.13230  0.52697  1.0000
  C   C164      1.0  0.50219  0.36352  0.02339  1.0000
  C   C165      1.0  0.13510  0.50458  0.76641  1.0000
  C   C166      1.0  0.36490  0.99788  0.27420  1.0000
  C   C167      1.0  0.49437  0.63087  0.04039  1.0000
  C   C168      1.0  0.00131  0.86467  0.52381  1.0000
  C   C169      1.0  0.00784  0.10357  0.25294  1.0000
  C   C170      1.0  0.10533  0.49141  0.49376  1.0000
  C   C171      1.0  0.39094  0.01060  0.99628  1.0000
  C   C172      1.0  0.84583  0.03761  0.27185  1.0000
  C   C173      1.0  0.65514  0.46222  0.77782  1.0000
  C   C174      1.0  0.96462  0.34880  0.51059  1.0000
  C   C175      1.0  0.53790  0.15272  0.01205  1.0000
  C   C176      1.0  0.34757  0.53550  0.76557  1.0000
  C   C177      1.0  0.15270  0.95943  0.26538  1.0000
  C   C178      1.0  0.46385  0.84622  0.02804  1.0000
  C   C179      1.0  0.03258  0.65699  0.52386  1.0000
  C   C180      1.0  0.61210  0.49459  0.00108  1.0000
  C   C181      1.0  0.99609  0.39145  0.73508  1.0000
  C   C182      1.0  0.39002  0.50362  0.99177  1.0000
  C   C183      1.0  0.11024  0.99167  0.49138  1.0000
  C   C184      1.0  0.49600  0.88974  0.24878  1.0000
  C   C185      1.0  0.96966  0.07506  0.24145  1.0000
  C   C186      1.0  0.07721  0.52994  0.48257  1.0000
  C   C187      1.0  0.42171  0.97415  0.99129  1.0000
  C   C188      1.0  0.96690  0.04279  0.11322  1.0000
  C   C189      1.0  0.04460  0.53328  0.35485  1.0000
  C   C190      1.0  0.45437  0.97152  0.86406  1.0000
  C   C191      1.0  0.00156  0.03777  0.98976  1.0000
  C   C192      1.0  0.03885  0.49904  0.23125  1.0000
  C   C193      1.0  0.45773  0.00462  0.73562  1.0000
  C   C194      1.0  0.03880  0.06699  0.99856  1.0000
  C   C195      1.0  0.06780  0.46157  0.23946  1.0000
  C   C196      1.0  0.42618  0.04001  0.73810  1.0000
  C   C197      1.0  0.04173  0.09954  0.12720  1.0000
  C   C198      1.0  0.10061  0.45801  0.36747  1.0000
  C   C199      1.0  0.39297  0.04278  0.86572  1.0000
  C   C200      1.0  0.60780  0.45987  0.12183  1.0000
  C   C201      1.0  0.96187  0.39337  0.86063  1.0000
  C   C202      1.0  0.39184  0.53688  0.12006  1.0000
  C   C203      1.0  0.10704  0.95809  0.61723  1.0000
  C   C204      1.0  0.46256  0.89232  0.37705  1.0000
  C   C205      1.0  0.57354  0.46162  0.24650  1.0000
  C   C206      1.0  0.96267  0.42729  0.98600  1.0000
  C   C207      1.0  0.42543  0.53502  0.24728  1.0000
  C   C208      1.0  0.07302  0.96039  0.74282  1.0000
  C   C209      1.0  0.46395  0.92695  0.49947  1.0000
  C   C210      1.0  0.54181  0.49685  0.25184  1.0000
  C   C211      1.0  0.99622  0.46069  0.98667  1.0000
  C   C212      1.0  0.45871  0.50120  0.24776  1.0000
  C   C213      1.0  0.04063  0.99501  0.74417  1.0000
  C   C214      1.0  0.49736  0.96047  0.49456  1.0000
  C   C215      1.0  0.54728  0.53183  0.13268  1.0000
  C   C216      1.0  0.03071  0.45758  0.86258  1.0000
  C   C217      1.0  0.45584  0.46782  0.12029  1.0000
  C   C218      1.0  0.04489  0.02878  0.61936  1.0000
  C   C219      1.0  0.53098  0.95681  0.36738  1.0000
  C   C220      1.0  0.58209  0.53159  0.01287  1.0000
  C   C221      1.0  0.03160  0.42319  0.74253  1.0000
  C   C222      1.0  0.42194  0.46814  0.99758  1.0000
  C   C223      1.0  0.07933  0.02802  0.49820  1.0000
  C   C224      1.0  0.53128  0.92180  0.24986  1.0000
  C   C225      1.0  0.99899  0.99732  0.86523  1.0000
  C   C226      1.0  0.49976  0.49873  0.37121  1.0000
  C   C227      1.0  0.99758  0.50170  0.10923  1.0000
  C   C228      1.0  0.49912  0.00214  0.61383  1.0000
  N   N1        1.0  0.63547  0.98470  0.13869  1.0000
  N   N2        1.0  0.85893  0.51584  0.63080  1.0000
  N   N3        1.0  0.01529  0.13565  0.38228  1.0000
  N   N4        1.0  0.48261  0.35730  0.87584  1.0000
  N   N5        1.0  0.13723  0.48272  0.62321  1.0000
  N   N6        1.0  0.35844  0.01741  0.12738  1.0000
  N   N7        1.0  0.51638  0.63436  0.89772  1.0000
  N   N8        1.0  0.98085  0.85898  0.37784  1.0000
  N   N9        1.0  0.85626  0.00262  0.36112  1.0000
  N   N10       1.0  0.64543  0.49645  0.87340  1.0000
  N   N11       1.0  0.99906  0.35939  0.60418  1.0000
  N   N12       1.0  0.50358  0.14373  0.10870  1.0000
  N   N13       1.0  0.35836  0.50133  0.85880  1.0000
  N   N14       1.0  0.14358  0.99320  0.36393  1.0000
  N   N15       1.0  0.49838  0.85669  0.12121  1.0000
  N   N16       1.0  0.99803  0.64684  0.61765  1.0000
  Cl  Cl1       1.0  0.73015  0.84683  0.24284  1.0000
  Cl  Cl2       1.0  0.77009  0.65811  0.78956  1.0000
  Cl  Cl3       1.0  0.15394  0.23154  0.47309  1.0000
  Cl  Cl4       1.0  0.34341  0.26169  0.01540  1.0000
  Cl  Cl5       1.0  0.23721  0.34658  0.71296  1.0000
  Cl  Cl6       1.0  0.26553  0.15807  0.28773  1.0000
  Cl  Cl7       1.0  0.65401  0.73101  0.99750  1.0000
  Cl  Cl8       1.0  0.83686  0.77178  0.53475  1.0000
  Cl  Cl9       1.0  0.84974  0.19092  0.86808  1.0000
  Cl  Cl10      1.0  0.65057  0.31069  0.35645  1.0000
  Cl  Cl11      1.0  0.80485  0.34166  0.13343  1.0000
  Cl  Cl12      1.0  0.69173  0.15117  0.59627  1.0000
  Cl  Cl13      1.0  0.34502  0.69244  0.38644  1.0000
  Cl  Cl14      1.0  0.14918  0.80971  0.83292  1.0000
  Cl  Cl15      1.0  0.30619  0.84334  0.63898  1.0000
  Cl  Cl16      1.0  0.18577  0.64941  0.11803  1.0000
  O   O1        1.0  0.67529  0.06624  0.82399  1.0000
  O   O2        1.0  0.82895  0.43118  0.31607  1.0000
  O   O3        1.0  0.93990  0.17555  0.07813  1.0000
  O   O4        1.0  0.56458  0.32892  0.57072  1.0000
  O   O5        1.0  0.18186  0.55988  0.31972  1.0000
  O   O6        1.0  0.33087  0.93341  0.81597  1.0000
  O   O7        1.0  0.43613  0.67319  0.58596  1.0000
  O   O8        1.0  0.06470  0.82907  0.06668  1.0000
  O   O9        1.0  0.73348  0.94535  0.98234  1.0000
  O   O10       1.0  0.77740  0.54903  0.52476  1.0000
  O   O11       1.0  0.06031  0.24054  0.22508  1.0000
  O   O12       1.0  0.44990  0.27478  0.76675  1.0000
  O   O13       1.0  0.24278  0.43926  0.46630  1.0000
  O   O14       1.0  0.27549  0.04731  0.02511  1.0000
  O   O15       1.0  0.55802  0.73539  0.75000  1.0000
  O   O16       1.0  0.94656  0.77962  0.26735  1.0000
  C  Sn1       1.0  0.55803  0.04266  0.86877  1.0000
  C   C229      1.0  0.55031  0.01247  0.73451  1.0000
  C  Sn2       1.0  0.56625  0.96897  0.73969  1.0000
  C  Sn3       1.0  0.59270  0.95536  0.88207  1.0000
  C   C230      1.0  0.60064  0.98480  0.01623  1.0000
  C  Sn4       1.0  0.58472  0.02831  0.01115  1.0000
  O  Te1       1.0  0.53948  0.08598  0.86090  1.0000
  O  Te2       1.0  0.55809  0.93939  0.60391  1.0000
  O  Te3       1.0  0.61125  0.91200  0.88983  1.0000
  O  Te4       1.0  0.59287  0.05788  0.14683  1.0000
  Mg  Mg1       1.0  0.59061  0.88393  0.67368  1.0000
  Mg  Mg2       1.0  0.56035  0.11334  0.07724  1.0000
  C  Sn5       1.0  0.54820  0.09476  0.36829  1.0000
  C   C231      1.0  0.51787  0.10238  0.23395  1.0000
  C  Sn6       1.0  0.47494  0.08236  0.23449  1.0000
  C  Sn7       1.0  0.46202  0.05415  0.37223  1.0000
  C   C232      1.0  0.49233  0.04655  0.50648  1.0000
  C  Sn8       1.0  0.53528  0.06655  0.50603  1.0000
  O  Te5       1.0  0.59095  0.11513  0.36510  1.0000
  O  Te6       1.0  0.44521  0.09047  0.09873  1.0000
  O  Te7       1.0  0.41923  0.03378  0.37532  1.0000
  O  Te8       1.0  0.56499  0.05846  0.64170  1.0000
  Mg  Mg3       1.0  0.39069  0.05511  0.16117  1.0000
  Mg  Mg4       1.0  0.61951  0.09382  0.57945  1.0000
  C  Sn9       1.0  0.93730  0.47558  0.49365  1.0000
  C   C233      1.0  0.90331  0.50794  0.51834  1.0000
  C  Sn10      1.0  0.89209  0.53794  0.38762  1.0000
  C  Sn11      1.0  0.91531  0.53553  0.22885  1.0000
  C   C234      1.0  0.94927  0.50318  0.20421  1.0000
  C  Sn12      1.0  0.96052  0.47317  0.33489  1.0000
  O  Te9       1.0  0.94796  0.44593  0.62612  1.0000
  O  Te10      1.0  0.85800  0.57001  0.41534  1.0000
  O  Te11      1.0  0.90463  0.56521  0.09635  1.0000
  O  Te12      1.0  0.99459  0.44110  0.30722  1.0000
  Mg  Mg5       1.0  0.85567  0.60296  0.19576  1.0000
  Mg  Mg6       1.0  0.99692  0.40813  0.52666  1.0000
  C  Sn13      1.0  0.53995  0.43616  0.61176  1.0000
  C   C235      1.0  0.50826  0.44756  0.48600  1.0000
  C  Sn14      1.0  0.46375  0.43144  0.49517  1.0000
  C  Sn15      1.0  0.45062  0.40335  0.63298  1.0000
  C   C236      1.0  0.48229  0.39196  0.75865  1.0000
  C  Sn16      1.0  0.52682  0.40807  0.74957  1.0000
  O  Te13      1.0  0.58427  0.45267  0.60003  1.0000
  O  Te14      1.0  0.43268  0.44328  0.36789  1.0000
  O  Te15      1.0  0.40626  0.38684  0.64462  1.0000
  O  Te16      1.0  0.55787  0.39624  0.87677  1.0000
  Mg  Mg7       1.0  0.37627  0.41240  0.44015  1.0000
  Mg  Mg8       1.0  0.61428  0.42713  0.80468  1.0000
  C  Sn17      1.0  0.91952  0.95704  0.54979  1.0000
  C   C237      1.0  0.88574  0.98979  0.52954  1.0000
  C  Sn18      1.0  0.89198  0.03167  0.61014  1.0000
  C  Sn19      1.0  0.93051  0.04102  0.71304  1.0000
  C   C238      1.0  0.96427  0.00829  0.73322  1.0000
  C  Sn20      1.0  0.95806  0.96640  0.65269  1.0000
  O  Te17      1.0  0.91486  0.91541  0.46801  1.0000
  O  Te18      1.0  0.85776  0.06387  0.58804  1.0000
  O  Te19      1.0  0.93515  0.08270  0.79484  1.0000
  O  Te20      1.0  0.99225  0.93422  0.67472  1.0000
  Mg  Mg9       1.0  0.87955  0.11559  0.72560  1.0000
  Mg  Mg10      1.0  0.97051  0.88250  0.53716  1.0000
  C  Sn21      1.0  0.04547  0.59483  0.86172  1.0000
  C   C239      1.0  0.01342  0.60417  0.73482  1.0000
  C  Sn22      1.0  0.97019  0.58486  0.74153  1.0000
  C  Sn23      1.0  0.95874  0.55562  0.87798  1.0000
  C   C240      1.0  0.99102  0.54555  0.00480  1.0000
  C  Sn24      1.0  0.03402  0.56558  0.99818  1.0000
  O  Te21      1.0  0.08849  0.61451  0.85245  1.0000
  O  Te22      1.0  0.93873  0.59470  0.61314  1.0000
  O  Te23      1.0  0.91569  0.53593  0.88716  1.0000
  O  Te24      1.0  0.06572  0.55502  0.12647  1.0000
  Mg  Mg11      1.0  0.88453  0.55968  0.68201  1.0000
  Mg  Mg12      1.0  0.11991  0.59004  0.05779  1.0000
  C  Sn25      1.0  0.96070  0.89059  0.05472  1.0000
  C   C241      1.0  0.99007  0.88289  0.19196  1.0000
  C  Sn26      1.0  0.02209  0.91534  0.23885  1.0000
  C  Sn27      1.0  0.02481  0.95635  0.14670  1.0000
  C   C242      1.0  0.99545  0.96403  0.00956  1.0000
  C  Sn28      1.0  0.96317  0.93233  0.96257  1.0000
  O  Te25      1.0  0.92895  0.85768  0.01010  1.0000
  O  Te26      1.0  0.05110  0.90688  0.37648  1.0000
  O  Te27      1.0  0.05660  0.98926  0.19143  1.0000
  O  Te28      1.0  0.93417  0.94078  0.82505  1.0000
  Mg  Mg13      1.0  0.08864  0.96210  0.38838  1.0000
  Mg  Mg14      1.0  0.89660  0.88560  0.81309  1.0000
  C  Sn29      1.0  0.54964  0.56591  0.56328  1.0000
  C   C243      1.0  0.51408  0.53619  0.52756  1.0000
  C  Sn30      1.0  0.47145  0.54240  0.60297  1.0000
  C  Sn31      1.0  0.46419  0.57910  0.71638  1.0000
  C   C244      1.0  0.49973  0.60880  0.75203  1.0000
  C  Sn32      1.0  0.54238  0.60261  0.67669  1.0000
  O  Te29      1.0  0.59198  0.55906  0.48644  1.0000
  O  Te30      1.0  0.43643  0.51223  0.56533  1.0000
  O  Te31      1.0  0.42181  0.58593  0.79323  1.0000
  O  Te32      1.0  0.57739  0.63276  0.71426  1.0000
  Mg  Mg15      1.0  0.38479  0.53575  0.70172  1.0000
  Mg  Mg16      1.0  0.62903  0.60929  0.57788  1.0000
