data_image0
_chemical_formula_structural       H96C180N16Cl16O16SnCSn2CSnTe4Mg2SnCSn2CSnTe4Mg2SnCSn2CSnTe4Mg2SnCSn2CSnTe4Mg2SnCSn2CSnTe4Mg2SnCSn2CSnTe4Mg2SnCSn2CSnTe4Mg2SnCSn2CSnTe4Mg2SnCSn2CSnTe4Mg2SnCSn2CSnTe4Mg2SnCSn2CSnTe4Mg2SnCSn2CSnTe4Mg2SnCSn2CSnTe4Mg2SnCSn2CSnTe4Mg2SnCSn2CSnTe4Mg2SnCSn2CSnTe4Mg2SnCSn2CSnTe4Mg2SnCSn2CSnTe4Mg2SnCSn2CSnTe4Mg2SnCSn2CSnTe4Mg2SnCSn2CSnTe4Mg2SnCSn2CSnTe4Mg2SnCSn2CSnTe4Mg2SnCSn2CSnTe4Mg2
_chemical_formula_sum              "H96 C228 N16 Cl16 O16 Sn96 Te96 Mg48"
_cell_length_a       35.3879
_cell_length_b       35.6995
_cell_length_c       7.53598
_cell_angle_alpha    90.0034
_cell_angle_beta     89.8941
_cell_angle_gamma    90.1211

_symmetry_space_group_name_H-M    'P1'
_space_group_IT_number       1

loop_
  _space_group_symop_operation_xyz
  'x, y, z'

loop_
  _atom_site_type_symbol
  _atom_site_label
  _atom_site_symmetry_multiplicity
  _atom_site_fract_x
  _atom_site_fract_y
  _atom_site_fract_z
  _atom_site_occupancy
  H   H1        1.0  0.19107  0.94525  0.35123  1.0000
  H   H2        1.0  0.30983  0.55695  0.85003  1.0000
  H   H3        1.0  0.05733  0.69034  0.61083  1.0000
  H   H4        1.0  0.44276  0.80944  0.10817  1.0000
  H   H5        1.0  0.69022  0.44706  0.86463  1.0000
  H   H6        1.0  0.80899  0.05713  0.35439  1.0000
  H   H7        1.0  0.55329  0.18815  0.11578  1.0000
  H   H8        1.0  0.94355  0.31042  0.60948  1.0000
  H   H9        1.0  0.14085  0.89718  0.38019  1.0000
  H   H10       1.0  0.36008  0.60496  0.87556  1.0000
  H   H11       1.0  0.10508  0.64009  0.64358  1.0000
  H   H12       1.0  0.39398  0.85886  0.13443  1.0000
  H   H13       1.0  0.64051  0.39852  0.89210  1.0000
  H   H14       1.0  0.85976  0.10470  0.37855  1.0000
  H   H15       1.0  0.60175  0.13832  0.14097  1.0000
  H   H16       1.0  0.89558  0.36063  0.63501  1.0000
  H   H17       1.0  0.10241  0.92125  0.85312  1.0000
  H   H18       1.0  0.39659  0.58179  0.34404  1.0000
  H   H19       1.0  0.08192  0.60147  0.11629  1.0000
  H   H20       1.0  0.41822  0.89622  0.60556  1.0000
  H   H21       1.0  0.60272  0.42175  0.36346  1.0000
  H   H22       1.0  0.89621  0.08043  0.84817  1.0000
  H   H23       1.0  0.57802  0.10212  0.61006  1.0000
  H   H24       1.0  0.91936  0.39625  0.10326  1.0000
  H   H25       1.0  0.18467  0.02072  0.64959  1.0000
  H   H26       1.0  0.31555  0.48113  0.14823  1.0000
  H   H27       1.0  0.98277  0.68292  0.90574  1.0000
  H   H28       1.0  0.52012  0.81661  0.40839  1.0000
  H   H29       1.0  0.68394  0.52188  0.16067  1.0000
  H   H30       1.0  0.81396  0.98042  0.65446  1.0000
  H   H31       1.0  0.47764  0.18341  0.41260  1.0000
  H   H32       1.0  0.01979  0.31494  0.90644  1.0000
  H   H33       1.0  0.26250  0.05661  0.51867  1.0000
  H   H34       1.0  0.24050  0.44427  0.02248  1.0000
  H   H35       1.0  0.94445  0.75837  0.77694  1.0000
  H   H36       1.0  0.55557  0.74019  0.27887  1.0000
  H   H37       1.0  0.76234  0.55720  0.03472  1.0000
  H   H38       1.0  0.73945  0.94486  0.53049  1.0000
  H   H39       1.0  0.44139  0.25621  0.29448  1.0000
  H   H40       1.0  0.05652  0.24075  0.77977  1.0000
  H   H41       1.0  0.24311  0.92566  0.04161  1.0000
  H   H42       1.0  0.25655  0.57586  0.54582  1.0000
  H   H43       1.0  0.07663  0.74343  0.29627  1.0000
  H   H44       1.0  0.42408  0.75726  0.79760  1.0000
  H   H45       1.0  0.74207  0.42759  0.54969  1.0000
  H   H46       1.0  0.75563  0.07599  0.05182  1.0000
  H   H47       1.0  0.57204  0.24090  0.80486  1.0000
  H   H48       1.0  0.92394  0.25704  0.30445  1.0000
  H   H49       1.0  0.28806  0.87519  0.11887  1.0000
  H   H50       1.0  0.21100  0.62546  0.62707  1.0000
  H   H51       1.0  0.12623  0.78991  0.37090  1.0000
  H   H52       1.0  0.37402  0.71123  0.87111  1.0000
  H   H53       1.0  0.78789  0.37747  0.61913  1.0000
  H   H54       1.0  0.70985  0.12559  0.13060  1.0000
  H   H55       1.0  0.62187  0.28739  0.87505  1.0000
  H   H56       1.0  0.87453  0.21034  0.37864  1.0000
  H   H57       1.0  0.32936  0.94028  0.55762  1.0000
  H   H58       1.0  0.17150  0.55942  0.06618  1.0000
  H   H59       1.0  0.05953  0.82976  0.80822  1.0000
  H   H60       1.0  0.44009  0.67024  0.30809  1.0000
  H   H61       1.0  0.82963  0.44120  0.06156  1.0000
  H   H62       1.0  0.66915  0.05936  0.56709  1.0000
  H   H63       1.0  0.55595  0.32840  0.31283  1.0000
  H   H64       1.0  0.94138  0.17042  0.81481  1.0000
  H   H65       1.0  0.09572  0.96479  0.69345  1.0000
  H   H66       1.0  0.40378  0.53776  0.18605  1.0000
  H   H67       1.0  0.03860  0.59488  0.95297  1.0000
  H   H68       1.0  0.46277  0.90355  0.44771  1.0000
  H   H69       1.0  0.59559  0.46546  0.20314  1.0000
  H   H70       1.0  0.90289  0.03554  0.69255  1.0000
  H   H71       1.0  0.53381  0.09544  0.45203  1.0000
  H   H72       1.0  0.96368  0.40294  0.94443  1.0000
  H   H73       1.0  0.25510  0.03201  0.97049  1.0000
  H   H74       1.0  0.24530  0.46924  0.47366  1.0000
  H   H75       1.0  0.97076  0.75341  0.22482  1.0000
  H   H76       1.0  0.53252  0.74724  0.73346  1.0000
  H   H77       1.0  0.75460  0.53422  0.48198  1.0000
  H   H78       1.0  0.74423  0.96923  0.98366  1.0000
  H   H79       1.0  0.46596  0.25230  0.74271  1.0000
  H   H80       1.0  0.03117  0.24571  0.23346  1.0000
  H   H81       1.0  0.21694  0.07528  0.33957  1.0000
  H   H82       1.0  0.28649  0.42682  0.84285  1.0000
  H   H83       1.0  0.92763  0.71094  0.60020  1.0000
  H   H84       1.0  0.57366  0.78637  0.09965  1.0000
  H   H85       1.0  0.71574  0.57600  0.86175  1.0000
  H   H86       1.0  0.78567  0.92744  0.35220  1.0000
  H   H87       1.0  0.42353  0.20914  0.11831  1.0000
  H   H88       1.0  0.07467  0.28596  0.59643  1.0000
  H   H89       1.0  0.40371  0.04792  0.08588  1.0000
  H   H90       1.0  0.10625  0.44474  0.61869  1.0000
  H   H91       1.0  0.94769  0.89966  0.34041  1.0000
  H   H92       1.0  0.54142  0.59041  0.81006  1.0000
  H   H93       1.0  0.91150  0.54065  0.56954  1.0000
  H   H94       1.0  0.60147  0.94664  0.11248  1.0000
  H   H95       1.0  0.44969  0.40157  0.84354  1.0000
  H   H96       1.0  0.04590  0.09431  0.32671  1.0000
  C   C1        1.0  0.14954  0.95576  0.94160  1.0000
  C   C2        1.0  0.35025  0.54674  0.43708  1.0000
  C   C3        1.0  0.04738  0.64850  0.20180  1.0000
  C   C4        1.0  0.45346  0.85020  0.69715  1.0000
  C   C5        1.0  0.64919  0.45695  0.45364  1.0000
  C   C6        1.0  0.84939  0.04595  0.94182  1.0000
  C   C7        1.0  0.54292  0.14814  0.70294  1.0000
  C   C8        1.0  0.95421  0.35016  0.19619  1.0000
  C   C9        1.0  0.17624  0.96132  0.08310  1.0000
  C   C10       1.0  0.32403  0.54087  0.58071  1.0000
  C   C11       1.0  0.04161  0.67521  0.34228  1.0000
  C   C12       1.0  0.45920  0.82400  0.83964  1.0000
  C   C13       1.0  0.67566  0.46294  0.59561  1.0000
  C   C14       1.0  0.82309  0.04055  0.08556  1.0000
  C   C15       1.0  0.53709  0.17399  0.84675  1.0000
  C   C16       1.0  0.95979  0.32417  0.33981  1.0000
  C   C17       1.0  0.17189  0.94011  0.24166  1.0000
  C   C18       1.0  0.32870  0.56213  0.73890  1.0000
  C   C19       1.0  0.06257  0.67110  0.50200  1.0000
  C   C20       1.0  0.43756  0.82824  0.99768  1.0000
  C   C21       1.0  0.67132  0.44170  0.75420  1.0000
  C   C22       1.0  0.82791  0.06196  0.24314  1.0000
  C   C23       1.0  0.55850  0.16944  0.00486  1.0000
  C   C24       1.0  0.93846  0.32907  0.49827  1.0000
  C   C25       1.0  0.14397  0.91340  0.25900  1.0000
  C   C26       1.0  0.35665  0.58887  0.75432  1.0000
  C   C27       1.0  0.08915  0.64324  0.52142  1.0000
  C   C28       1.0  0.41046  0.85572  0.01358  1.0000
  C   C29       1.0  0.64364  0.41469  0.77083  1.0000
  C   C30       1.0  0.85613  0.08844  0.25790  1.0000
  C   C31       1.0  0.58544  0.14181  0.02006  1.0000
  C   C32       1.0  0.91181  0.35700  0.51379  1.0000
  C   C33       1.0  0.11920  0.90709  0.11598  1.0000
  C   C34       1.0  0.38104  0.59538  0.60957  1.0000
  C   C35       1.0  0.09563  0.61841  0.37945  1.0000
  C   C36       1.0  0.40402  0.88000  0.86949  1.0000
  C   C37       1.0  0.61910  0.40798  0.62736  1.0000
  C   C38       1.0  0.88059  0.09451  0.11304  1.0000
  C   C39       1.0  0.59188  0.11773  0.87514  1.0000
  C   C40       1.0  0.90544  0.38108  0.36891  1.0000
  C   C41       1.0  0.12166  0.92756  0.96084  1.0000
  C   C42       1.0  0.37796  0.57516  0.45399  1.0000
  C   C43       1.0  0.07549  0.62077  0.22313  1.0000
  C   C44       1.0  0.42474  0.87748  0.71450  1.0000
  C   C45       1.0  0.62164  0.42838  0.47201  1.0000
  C   C46       1.0  0.87741  0.07411  0.95801  1.0000
  C   C47       1.0  0.57143  0.12065  0.71981  1.0000
  C   C48       1.0  0.92583  0.37781  0.21326  1.0000
  C   C49       1.0  0.15220  0.97879  0.78527  1.0000
  C   C50       1.0  0.34747  0.52351  0.28159  1.0000
  C   C51       1.0  0.02451  0.65098  0.04467  1.0000
  C   C52       1.0  0.47698  0.84772  0.54182  1.0000
  C   C53       1.0  0.65188  0.47995  0.29734  1.0000
  C   C54       1.0  0.84633  0.02260  0.78681  1.0000
  C   C55       1.0  0.51977  0.15122  0.54690  1.0000
  C   C56       1.0  0.97755  0.34715  0.04026  1.0000
  C   C57       1.0  0.18210  0.00381  0.76913  1.0000
  C   C58       1.0  0.31778  0.49822  0.26733  1.0000
  C   C59       1.0  0.99964  0.68075  0.02580  1.0000
  C   C60       1.0  0.50268  0.81856  0.52701  1.0000
  C   C61       1.0  0.68163  0.50517  0.28097  1.0000
  C   C62       1.0  0.81640  0.99757  0.77325  1.0000
  C   C63       1.0  0.49459  0.18086  0.53224  1.0000
  C   C64       1.0  0.00265  0.31745  0.02584  1.0000
  C   C65       1.0  0.20866  0.00836  0.90591  1.0000
  C   C66       1.0  0.29139  0.49361  0.40537  1.0000
  C   C67       1.0  0.99502  0.70741  0.16112  1.0000
  C   C68       1.0  0.50725  0.79227  0.66405  1.0000
  C   C69       1.0  0.70816  0.51002  0.41773  1.0000
  C   C70       1.0  0.79004  0.99334  0.91168  1.0000
  C   C71       1.0  0.49002  0.20682  0.67080  1.0000
  C   C72       1.0  0.00695  0.29132  0.16392  1.0000
  C   C73       1.0  0.20630  0.98773  0.06355  1.0000
  C   C74       1.0  0.29414  0.51418  0.56309  1.0000
  C   C75       1.0  0.01529  0.70508  0.31998  1.0000
  C   C76       1.0  0.48611  0.79451  0.82088  1.0000
  C   C77       1.0  0.70564  0.48951  0.57575  1.0000
  C   C78       1.0  0.79297  0.01410  0.06880  1.0000
  C   C79       1.0  0.51043  0.20364  0.82893  1.0000
  C   C80       1.0  0.98627  0.29427  0.32192  1.0000
  C   C81       1.0  0.23484  0.99266  0.20622  1.0000
  C   C82       1.0  0.26614  0.50873  0.70818  1.0000
  C   C83       1.0  0.00956  0.73335  0.46223  1.0000
  C   C84       1.0  0.49121  0.76634  0.96387  1.0000
  C   C85       1.0  0.73426  0.49430  0.71813  1.0000
  C   C86       1.0  0.76492  0.00897  0.21420  1.0000
  C   C87       1.0  0.50512  0.23141  0.97368  1.0000
  C   C88       1.0  0.99152  0.26646  0.46674  1.0000
  C   C89       1.0  0.23697  0.02597  0.30218  1.0000
  C   C90       1.0  0.26500  0.47540  0.80442  1.0000
  C   C91       1.0  0.97609  0.73392  0.55989  1.0000
  C   C92       1.0  0.52453  0.76516  0.06156  1.0000
  C   C93       1.0  0.73634  0.52726  0.81670  1.0000
  C   C94       1.0  0.76389  0.97584  0.31193  1.0000
  C   C95       1.0  0.47209  0.23184  0.07464  1.0000
  C   C96       1.0  0.02509  0.26528  0.56286  1.0000
  C   C97       1.0  0.26261  0.03048  0.44407  1.0000
  C   C98       1.0  0.23968  0.47035  0.94762  1.0000
  C   C99       1.0  0.97057  0.75955  0.70041  1.0000
  C   C100      1.0  0.52945  0.73957  0.20269  1.0000
  C   C101      1.0  0.76225  0.53136  0.95794  1.0000
  C   C102      1.0  0.73845  0.97083  0.45476  1.0000
  C   C103      1.0  0.46720  0.25747  0.21578  1.0000
  C   C104      1.0  0.03024  0.23996  0.70493  1.0000
  C   C105      1.0  0.28623  0.00184  0.49736  1.0000
  C   C106      1.0  0.21553  0.49849  0.00249  1.0000
  C   C107      1.0  0.99858  0.78443  0.75127  1.0000
  C   C108      1.0  0.50108  0.71505  0.25229  1.0000
  C   C109      1.0  0.78604  0.50259  0.00756  1.0000
  C   C110      1.0  0.71399  0.99886  0.50787  1.0000
  C   C111      1.0  0.49537  0.28240  0.26373  1.0000
  C   C112      1.0  0.00194  0.21559  0.75736  1.0000
  C   C113      1.0  0.28571  0.96722  0.40090  1.0000
  C   C114      1.0  0.21521  0.53316  0.90640  1.0000
  C   C115      1.0  0.03348  0.78514  0.65416  1.0000
  C   C116      1.0  0.46641  0.71474  0.15454  1.0000
  C   C117      1.0  0.78553  0.46833  0.90864  1.0000
  C   C118      1.0  0.71363  0.03340  0.41074  1.0000
  C   C119      1.0  0.52983  0.28320  0.16331  1.0000
  C   C120      1.0  0.96709  0.21515  0.66078  1.0000
  C   C121      1.0  0.26034  0.96302  0.25325  1.0000
  C   C122      1.0  0.24021  0.53787  0.75716  1.0000
  C   C123      1.0  0.03849  0.75988  0.50727  1.0000
  C   C124      1.0  0.46183  0.74021  0.00841  1.0000
  C   C125      1.0  0.75989  0.46456  0.76195  1.0000
  C   C126      1.0  0.73887  0.03808  0.26231  1.0000
  C   C127      1.0  0.53432  0.25783  0.01670  1.0000
  C   C128      1.0  0.96221  0.24042  0.51399  1.0000
  C   C129      1.0  0.26190  0.92908  0.15441  1.0000
  C   C130      1.0  0.23800  0.57192  0.65943  1.0000
  C   C131      1.0  0.07267  0.76227  0.40808  1.0000
  C   C132      1.0  0.42779  0.73825  0.90886  1.0000
  C   C133      1.0  0.76131  0.43091  0.66090  1.0000
  C   C134      1.0  0.73680  0.07209  0.16443  1.0000
  C   C135      1.0  0.56829  0.25999  0.91579  1.0000
  C   C136      1.0  0.92799  0.23810  0.41573  1.0000
  C   C137      1.0  0.28679  0.90073  0.19716  1.0000
  C   C138      1.0  0.21277  0.59983  0.70435  1.0000
  C   C139      1.0  0.10054  0.78792  0.44960  1.0000
  C   C140      1.0  0.39966  0.71280  0.94978  1.0000
  C   C141      1.0  0.78659  0.40266  0.69976  1.0000
  C   C142      1.0  0.71142  0.09996  0.20800  1.0000
  C   C143      1.0  0.59629  0.28570  0.95469  1.0000
  C   C144      1.0  0.90022  0.21225  0.45689  1.0000
  C   C145      1.0  0.31092  0.90519  0.34474  1.0000
  C   C146      1.0  0.18893  0.59487  0.85290  1.0000
  C   C147      1.0  0.09534  0.81206  0.59599  1.0000
  C   C148      1.0  0.40448  0.68844  0.09567  1.0000
  C   C149      1.0  0.81114  0.40675  0.84603  1.0000
  C   C150      1.0  0.68713  0.09492  0.35494  1.0000
  C   C151      1.0  0.59138  0.31029  0.09970  1.0000
  C   C152      1.0  0.90547  0.18795  0.60260  1.0000
  C   C153      1.0  0.31054  0.93750  0.44479  1.0000
  C   C154      1.0  0.19002  0.56248  0.95216  1.0000
  C   C155      1.0  0.06278  0.81084  0.69652  1.0000
  C   C156      1.0  0.43694  0.68919  0.19642  1.0000
  C   C157      1.0  0.81065  0.43862  0.94923  1.0000
  C   C158      1.0  0.68808  0.06256  0.45455  1.0000
  C   C159      1.0  0.55909  0.30918  0.20224  1.0000
  C   C160      1.0  0.93792  0.18933  0.70324  1.0000
  C   C161      1.0  0.12234  0.97800  0.65192  1.0000
  C   C162      1.0  0.37724  0.52405  0.14725  1.0000
  C   C163      1.0  0.02516  0.62120  0.91227  1.0000
  C   C164      1.0  0.47616  0.87714  0.40762  1.0000
  C   C165      1.0  0.62223  0.47889  0.16305  1.0000
  C   C166      1.0  0.87600  0.02279  0.65196  1.0000
  C   C167      1.0  0.52050  0.12189  0.41212  1.0000
  C   C168      1.0  0.97724  0.37655  0.90560  1.0000
  C   C169      1.0  0.38275  0.02535  0.10158  1.0000
  C   C170      1.0  0.12241  0.47113  0.61751  1.0000
  C   C171      1.0  0.97227  0.88098  0.35196  1.0000
  C   C172      1.0  0.52332  0.61466  0.84000  1.0000
  C   C173      1.0  0.88702  0.52255  0.59809  1.0000
  C   C174      1.0  0.61871  0.97234  0.11647  1.0000
  C   C175      1.0  0.47331  0.38178  0.85739  1.0000
  C   C176      1.0  0.02474  0.11635  0.34965  1.0000
  C   C177      1.0  0.99890  0.99934  0.01226  1.0000
  C   C178      1.0  0.50124  0.50058  0.51319  1.0000
  C   C179      1.0  0.00166  0.49931  0.27127  1.0000
  C   C180      1.0  0.49821  0.99984  0.77249  1.0000
  N   N1        1.0  0.12573  0.99351  0.49738  1.0000
  N   N2        1.0  0.37385  0.50758  0.99502  1.0000
  N   N3        1.0  0.00923  0.62462  0.75867  1.0000
  N   N4        1.0  0.49189  0.87354  0.25340  1.0000
  N   N5        1.0  0.62607  0.49443  0.00882  1.0000
  N   N6        1.0  0.87208  0.00723  0.49783  1.0000
  N   N7        1.0  0.50483  0.12556  0.25800  1.0000
  N   N8        1.0  0.99369  0.37302  0.75282  1.0000
  N   N9        1.0  0.38236  0.00259  0.23505  1.0000
  N   N10       1.0  0.11858  0.49683  0.73688  1.0000
  N   N11       1.0  0.99637  0.88295  0.48023  1.0000
  N   N12       1.0  0.50441  0.61777  0.98589  1.0000
  N   N13       1.0  0.88377  0.50345  0.74285  1.0000
  N   N14       1.0  0.61553  0.99738  0.23935  1.0000
  N   N15       1.0  0.49715  0.38293  0.98697  1.0000
  N   N16       1.0  0.00310  0.11726  0.48789  1.0000
  Cl  Cl1       1.0  0.08434  0.87273  0.13715  1.0000
  Cl  Cl2       1.0  0.41616  0.62945  0.62954  1.0000
  Cl  Cl3       1.0  0.12973  0.58358  0.40292  1.0000
  Cl  Cl4       1.0  0.36943  0.91448  0.88938  1.0000
  Cl  Cl5       1.0  0.58460  0.37321  0.64797  1.0000
  Cl  Cl6       1.0  0.91598  0.12835  0.13249  1.0000
  Cl  Cl7       1.0  0.62653  0.08328  0.89373  1.0000
  Cl  Cl8       1.0  0.87126  0.41604  0.38807  1.0000
  Cl  Cl9       1.0  0.34194  0.86908  0.40152  1.0000
  Cl  Cl10      1.0  0.15746  0.63038  0.91209  1.0000
  Cl  Cl11      1.0  0.13081  0.84413  0.65039  1.0000
  Cl  Cl12      1.0  0.36853  0.65671  0.14883  1.0000
  Cl  Cl13      1.0  0.84257  0.37069  0.89759  1.0000
  Cl  Cl14      1.0  0.65504  0.13016  0.41060  1.0000
  Cl  Cl15      1.0  0.62690  0.34261  0.15004  1.0000
  Cl  Cl16      1.0  0.87024  0.15546  0.65575  1.0000
  O   O1        1.0  0.23647  0.03426  0.87554  1.0000
  O   O2        1.0  0.26352  0.46767  0.37632  1.0000
  O   O3        1.0  0.96927  0.73513  0.12845  1.0000
  O   O4        1.0  0.53365  0.76498  0.63475  1.0000
  O   O5        1.0  0.73600  0.53597  0.38659  1.0000
  O   O6        1.0  0.76192  0.96763  0.88417  1.0000
  O   O7        1.0  0.46433  0.23484  0.64306  1.0000
  O   O8        1.0  0.03266  0.26338  0.13457  1.0000
  O   O9        1.0  0.21299  0.05473  0.25713  1.0000
  O   O10       1.0  0.28963  0.44720  0.75845  1.0000
  O   O11       1.0  0.94854  0.70821  0.51748  1.0000
  O   O12       1.0  0.55279  0.79002  0.01789  1.0000
  O   O13       1.0  0.71215  0.55609  0.77541  1.0000
  O   O14       1.0  0.78874  0.94774  0.26737  1.0000
  O   O15       1.0  0.44429  0.20614  0.03495  1.0000
  O   O16       1.0  0.05342  0.28993  0.51720  1.0000
  C  Sn1       1.0  0.06368  0.95770  0.32565  1.0000
  C   C181      1.0  0.09490  0.98148  0.34209  1.0000
  C  Sn2       1.0  0.09241  0.01704  0.26480  1.0000
  C  Sn3       1.0  0.06017  0.02910  0.16917  1.0000
  C   C182      1.0  0.02897  0.00533  0.15280  1.0000
  C  Sn4       1.0  0.03144  0.96976  0.23002  1.0000
  O  Te1       1.0  0.06466  0.92227  0.40401  1.0000
  O  Te2       1.0  0.12396  0.04031  0.28299  1.0000
  O  Te3       1.0  0.05921  0.06456  0.09079  1.0000
  O  Te4       1.0  0.99991  0.94650  0.21190  1.0000
  Mg  Mg1       1.0  0.10909  0.08608  0.15245  1.0000
  Mg  Mg2       1.0  0.01475  0.90073  0.34245  1.0000
  C  Sn5       1.0  0.46405  0.52865  0.82484  1.0000
  C   C183      1.0  0.47013  0.50163  0.69370  1.0000
  C  Sn6       1.0  0.44053  0.47862  0.63723  1.0000
  C  Sn7       1.0  0.40408  0.48271  0.71334  1.0000
  C   C184      1.0  0.39802  0.50972  0.84437  1.0000
  C  Sn8       1.0  0.42761  0.53274  0.90095  1.0000
  O  Te5       1.0  0.49406  0.55135  0.87926  1.0000
  O  Te6       1.0  0.44729  0.45180  0.50598  1.0000
  O  Te7       1.0  0.37407  0.45998  0.65880  1.0000
  O  Te8       1.0  0.42124  0.55953  0.03209  1.0000
  Mg  Mg3       1.0  0.39735  0.42754  0.47599  1.0000
  Mg  Mg4       1.0  0.47116  0.58383  0.06211  1.0000
  C  Sn9       1.0  0.04401  0.56215  0.58990  1.0000
  C   C185      1.0  0.02107  0.59382  0.60457  1.0000
  C  Sn10      1.0  0.98564  0.59466  0.52330  1.0000
  C  Sn11      1.0  0.97285  0.56317  0.42542  1.0000
  C   C186      1.0  0.99578  0.53152  0.41081  1.0000
  C  Sn12      1.0  0.03123  0.53066  0.49202  1.0000
  O  Te9       1.0  0.07933  0.56194  0.67225  1.0000
  O  Te10      1.0  0.96322  0.62664  0.53978  1.0000
  O  Te11      1.0  0.93750  0.56340  0.34305  1.0000
  O  Te12      1.0  0.05364  0.49870  0.47560  1.0000
  Mg  Mg5       1.0  0.91727  0.61345  0.40371  1.0000
  Mg  Mg6       1.0  0.09958  0.51185  0.61168  1.0000
  C  Sn13      1.0  0.45610  0.93508  0.08331  1.0000
  C   C187      1.0  0.48000  0.90413  0.09813  1.0000
  C  Sn14      1.0  0.51587  0.90471  0.02046  1.0000
  C  Sn15      1.0  0.52772  0.93692  0.92610  1.0000
  C   C188      1.0  0.50383  0.96785  0.91134  1.0000
  C  Sn16      1.0  0.46795  0.96729  0.98895  1.0000
  O  Te13      1.0  0.42036  0.93388  0.16202  1.0000
  O  Te14      1.0  0.53925  0.87343  0.03702  1.0000
  O  Te15      1.0  0.56349  0.93810  0.84736  1.0000
  O  Te16      1.0  0.44457  0.99855  0.97245  1.0000
  Mg  Mg7       1.0  0.58506  0.88855  0.90662  1.0000
  Mg  Mg8       1.0  0.39877  0.98347  0.10287  1.0000
  C  Sn17      1.0  0.58478  0.53102  0.75941  1.0000
  C   C189      1.0  0.59010  0.50425  0.89230  1.0000
  C  Sn18      1.0  0.56919  0.47102  0.89167  1.0000
  C  Sn19      1.0  0.54242  0.46439  0.75531  1.0000
  C   C190      1.0  0.53713  0.49114  0.62251  1.0000
  C  Sn20      1.0  0.55802  0.52439  0.62305  1.0000
  O  Te17      1.0  0.60600  0.56404  0.76266  1.0000
  O  Te18      1.0  0.57538  0.44467  0.02597  1.0000
  O  Te19      1.0  0.52120  0.43133  0.75216  1.0000
  O  Te20      1.0  0.55223  0.55071  0.48883  1.0000
  Mg  Mg9       1.0  0.53927  0.40399  0.96405  1.0000
  Mg  Mg10      1.0  0.58795  0.59140  0.55057  1.0000
  C  Sn21      1.0  0.96292  0.02622  0.32970  1.0000
  C   C191      1.0  0.97010  0.99999  0.19407  1.0000
  C  Sn22      1.0  0.93963  0.97860  0.13364  1.0000
  C  Sn23      1.0  0.90335  0.98354  0.21031  1.0000
  C   C192      1.0  0.89618  0.00976  0.34583  1.0000
  C  Sn24      1.0  0.92664  0.03115  0.40636  1.0000
  O  Te21      1.0  0.99378  0.04729  0.38802  1.0000
  O  Te22      1.0  0.94499  0.95256  0.99793  1.0000
  O  Te23      1.0  0.87248  0.96243  0.15186  1.0000
  O  Te24      1.0  0.92090  0.05720  0.54197  1.0000
  Mg  Mg11      1.0  0.89414  0.93052  0.96371  1.0000
  Mg  Mg12      1.0  0.97173  0.07927  0.57622  1.0000
  C  Sn25      1.0  0.54021  0.06344  0.08855  1.0000
  C   C193      1.0  0.51697  0.09491  0.10254  1.0000
  C  Sn26      1.0  0.48142  0.09523  0.02229  1.0000
  C  Sn27      1.0  0.46844  0.06344  0.92614  1.0000
  C   C194      1.0  0.49167  0.03199  0.91222  1.0000
  C  Sn28      1.0  0.52723  0.03165  0.99241  1.0000
  O  Te25      1.0  0.57564  0.06374  0.16986  1.0000
  O  Te26      1.0  0.45870  0.12702  0.03805  1.0000
  O  Te27      1.0  0.43297  0.06316  0.84481  1.0000
  O  Te28      1.0  0.55207  0.99988  0.97670  1.0000
  Mg  Mg13      1.0  0.41231  0.11312  0.90392  1.0000
  Mg  Mg14      1.0  0.59632  0.01374  0.11085  1.0000
  C  Sn29      1.0  0.97312  0.46253  0.58368  1.0000
  C   C195      1.0  0.00033  0.46846  0.45194  1.0000
  C  Sn30      1.0  0.02317  0.43900  0.39419  1.0000
  C  Sn31      1.0  0.01872  0.40285  0.46960  1.0000
  C   C196      1.0  0.99152  0.39694  0.60122  1.0000
  C  Sn32      1.0  0.96866  0.42638  0.65908  1.0000
  O  Te29      1.0  0.95059  0.49238  0.63938  1.0000
  O  Te30      1.0  0.05019  0.44561  0.26236  1.0000
  O  Te31      1.0  0.04128  0.37299  0.41378  1.0000
  O  Te32      1.0  0.94166  0.41978  0.79080  1.0000
  Mg  Mg15      1.0  0.07411  0.39597  0.23061  1.0000
  Mg  Mg16      1.0  0.91771  0.46939  0.82259  1.0000
  C  Sn33      1.0  0.33074  0.98162  0.91120  1.0000
  C   C197      1.0  0.35597  0.00946  0.93472  1.0000
  C  Sn34      1.0  0.35767  0.04008  0.81962  1.0000
  C  Sn35      1.0  0.33147  0.04296  0.67810  1.0000
  C   C198      1.0  0.30413  0.01514  0.65465  1.0000
  C  Sn36      1.0  0.30454  0.98450  0.76968  1.0000
  O  Te33      1.0  0.32995  0.95123  0.02787  1.0000
  O  Te34      1.0  0.38529  0.06756  0.84577  1.0000
  O  Te35      1.0  0.33268  0.07337  0.56140  1.0000
  O  Te36      1.0  0.27694  0.95704  0.74360  1.0000
  Mg  Mg17      1.0  0.37546  0.10361  0.65173  1.0000
  Mg  Mg18      1.0  0.28673  0.92099  0.93761  1.0000
  C  Sn37      1.0  0.19865  0.50919  0.36738  1.0000
  C   C199      1.0  0.19889  0.48977  0.20636  1.0000
  C  Sn38      1.0  0.16984  0.46469  0.16535  1.0000
  C  Sn39      1.0  0.13990  0.45892  0.28778  1.0000
  C   C200      1.0  0.13966  0.47833  0.44867  1.0000
  C  Sn40      1.0  0.16871  0.50342  0.48981  1.0000
  O  Te37      1.0  0.22798  0.53413  0.40560  1.0000
  O  Te38      1.0  0.17071  0.44559  0.00357  1.0000
  O  Te39      1.0  0.11056  0.43395  0.24942  1.0000
  O  Te40      1.0  0.16785  0.52251  0.65146  1.0000
  Mg  Mg19      1.0  0.12431  0.41455  0.01193  1.0000
  Mg  Mg20      1.0  0.21422  0.55357  0.64320  1.0000
  C  Sn41      1.0  0.94688  0.84553  0.03711  1.0000
  C   C201      1.0  0.96703  0.84714  0.19627  1.0000
  C  Sn42      1.0  0.00294  0.83119  0.20851  1.0000
  C  Sn43      1.0  0.01907  0.81328  0.05850  1.0000
  C   C202      1.0  0.99854  0.81169  0.89946  1.0000
  C  Sn44      1.0  0.96262  0.82763  0.88711  1.0000
  O  Te41      1.0  0.91103  0.86167  0.02790  1.0000
  O  Te42      1.0  0.02253  0.83314  0.36906  1.0000
  O  Te43      1.0  0.05495  0.79713  0.06784  1.0000
  O  Te44      1.0  0.94304  0.82569  0.72667  1.0000
  Mg  Mg21      1.0  0.07052  0.80702  0.31563  1.0000
  Mg  Mg22      1.0  0.89506  0.85182  0.77992  1.0000
  C  Sn45      1.0  0.48243  0.67120  0.66952  1.0000
  C   C203      1.0  0.50828  0.64180  0.68265  1.0000
  C  Sn46      1.0  0.53735  0.63811  0.55826  1.0000
  C  Sn47      1.0  0.54067  0.66438  0.41787  1.0000
  C   C204      1.0  0.51484  0.69377  0.40481  1.0000
  C  Sn48      1.0  0.48575  0.69747  0.52913  1.0000
  O  Te45      1.0  0.45360  0.67435  0.79537  1.0000
  O  Te46      1.0  0.56284  0.60847  0.57411  1.0000
  O  Te47      1.0  0.56954  0.66121  0.29197  1.0000
  O  Te48      1.0  0.46028  0.72709  0.51335  1.0000
  Mg  Mg23      1.0  0.59733  0.61608  0.37002  1.0000
  Mg  Mg24      1.0  0.42580  0.71952  0.71740  1.0000
  C  Sn49      1.0  0.80282  0.49488  0.37448  1.0000
  C   C205      1.0  0.80484  0.51164  0.20713  1.0000
  C  Sn50      1.0  0.83740  0.53089  0.15470  1.0000
  C  Sn51      1.0  0.86861  0.53343  0.27195  1.0000
  C   C206      1.0  0.86658  0.51668  0.43918  1.0000
  C  Sn52      1.0  0.83402  0.49742  0.49173  1.0000
  O  Te49      1.0  0.76998  0.47578  0.42410  1.0000
  O  Te50      1.0  0.83836  0.54743  0.98675  1.0000
  O  Te51      1.0  0.90146  0.55256  0.22219  1.0000
  O  Te52      1.0  0.83267  0.48089  0.65955  1.0000
  Mg  Mg25      1.0  0.88931  0.57040  0.97984  1.0000
  Mg  Mg26      1.0  0.78174  0.45790  0.66657  1.0000
  C  Sn53      1.0  0.66808  0.01836  0.92059  1.0000
  C   C207      1.0  0.64424  0.98931  0.94611  1.0000
  C  Sn54      1.0  0.64413  0.95829  0.83311  1.0000
  C  Sn55      1.0  0.67055  0.95626  0.69171  1.0000
  C   C208      1.0  0.69651  0.98530  0.66626  1.0000
  C  Sn56      1.0  0.69450  0.01633  0.77919  1.0000
  O  Te53      1.0  0.66807  0.04910  0.03519  1.0000
  O  Te54      1.0  0.61789  0.92960  0.86124  1.0000
  O  Te55      1.0  0.67094  0.92548  0.57708  1.0000
  O  Te56      1.0  0.72073  0.04501  0.75113  1.0000
  Mg  Mg27      1.0  0.62963  0.89348  0.66963  1.0000
  Mg  Mg28      1.0  0.70903  0.08113  0.94271  1.0000
  C  Sn57      1.0  0.44614  0.34601  0.54700  1.0000
  C   C209      1.0  0.46672  0.34768  0.70491  1.0000
  C  Sn58      1.0  0.50210  0.33061  0.71698  1.0000
  C  Sn59      1.0  0.51725  0.31149  0.56808  1.0000
  C   C210      1.0  0.49668  0.30984  0.41027  1.0000
  C  Sn60      1.0  0.46129  0.32689  0.39809  1.0000
  O  Te57      1.0  0.41082  0.36328  0.53792  1.0000
  O  Te58      1.0  0.52214  0.33265  0.87628  1.0000
  O  Te59      1.0  0.55260  0.29422  0.57727  1.0000
  O  Te60      1.0  0.44126  0.32487  0.23890  1.0000
  Mg  Mg29      1.0  0.56909  0.30472  0.82316  1.0000
  Mg  Mg30      1.0  0.39432  0.35281  0.29184  1.0000
  C  Sn61      1.0  0.03285  0.15008  0.91221  1.0000
  C   C211      1.0  0.00705  0.17950  0.89759  1.0000
  C  Sn62      1.0  0.98997  0.19410  0.04876  1.0000
  C  Sn63      1.0  0.99847  0.17901  0.21812  1.0000
  C   C212      1.0  0.02426  0.14961  0.23268  1.0000
  C  Sn64      1.0  0.04174  0.13498  0.08156  1.0000
  O  Te61      1.0  0.04999  0.13591  0.75930  1.0000
  O  Te62      1.0  0.96426  0.22350  0.03080  1.0000
  O  Te63      1.0  0.98130  0.19321  0.37108  1.0000
  O  Te64      1.0  0.06744  0.10559  0.09947  1.0000
  Mg  Mg31      1.0  0.94826  0.23332  0.27831  1.0000
  Mg  Mg32      1.0  0.08308  0.09578  0.85207  1.0000
  C  Sn65      1.0  0.40600  0.98169  0.56498  1.0000
  C   C213      1.0  0.40205  0.00656  0.42206  1.0000
  C  Sn66      1.0  0.43312  0.02899  0.37875  1.0000
  C  Sn67      1.0  0.46671  0.02650  0.48034  1.0000
  C   C214      1.0  0.46853  0.00164  0.62315  1.0000
  C  Sn68      1.0  0.43960  0.97920  0.66658  1.0000
  O  Te65      1.0  0.37461  0.95953  0.60588  1.0000
  O  Te66      1.0  0.43061  0.05365  0.23530  1.0000
  O  Te67      1.0  0.49812  0.04868  0.43933  1.0000
  O  Te68      1.0  0.44209  0.95454  0.80990  1.0000
  Mg  Mg33      1.0  0.48094  0.07797  0.23170  1.0000
  Mg  Mg34      1.0  0.39180  0.93019  0.81357  1.0000
  C  Sn69      1.0  0.04456  0.46014  0.00181  1.0000
  C   C215      1.0  0.04211  0.48505  0.14440  1.0000
  C  Sn70      1.0  0.06359  0.51793  0.14558  1.0000
  C  Sn71      1.0  0.08801  0.52609  0.00116  1.0000
  C   C216      1.0  0.09005  0.50120  0.85866  1.0000
  C  Sn72      1.0  0.06859  0.46832  0.85739  1.0000
  O  Te69      1.0  0.02283  0.42745  0.00343  1.0000
  O  Te70      1.0  0.06067  0.54240  0.28964  1.0000
  O  Te71      1.0  0.10935  0.55883  0.99964  1.0000
  O  Te72      1.0  0.07149  0.44386  0.71342  1.0000
  Mg  Mg35      1.0  0.09598  0.58337  0.22615  1.0000
  Mg  Mg36      1.0  0.03618  0.40289  0.77672  1.0000
  C  Sn73      1.0  0.95940  0.95669  0.74299  1.0000
  C   C217      1.0  0.98459  0.95930  0.88506  1.0000
  C  Sn74      1.0  0.01780  0.93822  0.88587  1.0000
  C  Sn75      1.0  0.02601  0.91403  0.74161  1.0000
  C   C218      1.0  0.00083  0.91143  0.59964  1.0000
  C  Sn76      1.0  0.96761  0.93250  0.59873  1.0000
  O  Te73      1.0  0.92637  0.97803  0.74497  1.0000
  O  Te74      1.0  0.04294  0.94129  0.02941  1.0000
  O  Te75      1.0  0.05907  0.89269  0.73974  1.0000
  O  Te76      1.0  0.94287  0.92944  0.45529  1.0000
  Mg  Mg37      1.0  0.08391  0.90653  0.96558  1.0000
  Mg  Mg38      1.0  0.90151  0.96420  0.51893  1.0000
  C  Sn77      1.0  0.53086  0.54920  0.11988  1.0000
  C   C219      1.0  0.50645  0.57942  0.09363  1.0000
  C  Sn78      1.0  0.48099  0.58996  0.22632  1.0000
  C  Sn79      1.0  0.47992  0.56990  0.38869  1.0000
  C   C220      1.0  0.50431  0.53970  0.41489  1.0000
  C  Sn80      1.0  0.52978  0.52914  0.28225  1.0000
  O  Te77      1.0  0.55569  0.53917  0.98540  1.0000
  O  Te78      1.0  0.45687  0.62026  0.19697  1.0000
  O  Te79      1.0  0.45466  0.57996  0.52320  1.0000
  O  Te80      1.0  0.55390  0.49887  0.31154  1.0000
  Mg  Mg39      1.0  0.42751  0.62322  0.42040  1.0000
  Mg  Mg40      1.0  0.58328  0.49589  0.08826  1.0000
  C  Sn81      1.0  0.93894  0.46688  0.07815  1.0000
  C   C221      1.0  0.96823  0.49218  0.11230  1.0000
  C  Sn82      1.0  0.96810  0.52773  0.03493  1.0000
  C  Sn83      1.0  0.93766  0.53825  0.92113  1.0000
  C   C222      1.0  0.90839  0.51296  0.88705  1.0000
  C  Sn84      1.0  0.90850  0.47740  0.96435  1.0000
  O  Te81      1.0  0.93965  0.43148  0.15695  1.0000
  O  Te82      1.0  0.99770  0.55253  0.07101  1.0000
  O  Te83      1.0  0.93698  0.57368  0.84232  1.0000
  O  Te84      1.0  0.87892  0.45261  0.92835  1.0000
  Mg  Mg41      1.0  0.98368  0.59760  0.93222  1.0000
  Mg  Mg42      1.0  0.89291  0.40754  0.06713  1.0000
  C  Sn85      1.0  0.56378  0.03098  0.59334  1.0000
  C   C223      1.0  0.53255  0.00751  0.61797  1.0000
  C  Sn86      1.0  0.53203  0.97362  0.52613  1.0000
  C  Sn87      1.0  0.56121  0.96295  0.40727  1.0000
  C   C224      1.0  0.59241  0.98642  0.38272  1.0000
  C  Sn88      1.0  0.59295  0.02032  0.47448  1.0000
  O  Te85      1.0  0.56584  0.06474  0.68656  1.0000
  O  Te86      1.0  0.50054  0.95062  0.55290  1.0000
  O  Te87      1.0  0.55912  0.92917  0.31403  1.0000
  O  Te88      1.0  0.62443  0.04330  0.44779  1.0000
  Mg  Mg43      1.0  0.51062  0.90738  0.39542  1.0000
  Mg  Mg44      1.0  0.61438  0.08654  0.60525  1.0000
  C  Sn89      1.0  0.47577  0.45435  0.10902  1.0000
  C   C225      1.0  0.49694  0.42149  0.09414  1.0000
  C  Sn90      1.0  0.51766  0.40820  0.23854  1.0000
  C  Sn91      1.0  0.51721  0.42817  0.40125  1.0000
  C   C226      1.0  0.49605  0.46100  0.41608  1.0000
  C  Sn92      1.0  0.47532  0.47431  0.27174  1.0000
  O  Te89      1.0  0.45487  0.46712  0.96295  1.0000
  O  Te90      1.0  0.53862  0.37529  0.22044  1.0000
  O  Te91      1.0  0.53774  0.41538  0.54737  1.0000
  O  Te92      1.0  0.45437  0.50720  0.28979  1.0000
  Mg  Mg45      1.0  0.56192  0.36917  0.45729  1.0000
  Mg  Mg46      1.0  0.43104  0.51333  0.05306  1.0000
  C  Sn93      1.0  0.02665  0.04688  0.61421  1.0000
  C   C227      1.0  0.00414  0.07873  0.59471  1.0000
  C  Sn94      1.0  0.98111  0.09083  0.73400  1.0000
  C  Sn95      1.0  0.98057  0.07069  0.89622  1.0000
  C   C228      1.0  0.00307  0.03887  0.91567  1.0000
  C  Sn96      1.0  0.02611  0.02674  0.77643  1.0000
  O  Te93      1.0  0.04947  0.03529  0.47320  1.0000
  O  Te94      1.0  0.95884  0.12274  0.71134  1.0000
  O  Te95      1.0  0.95812  0.08229  0.03726  1.0000
  O  Te96      1.0  0.05050  0.99485  0.79904  1.0000
  Mg  Mg47      1.0  0.93247  0.12744  0.94218  1.0000
  Mg  Mg48      1.0  0.07690  0.99013  0.56833  1.0000
