data_image0
_chemical_formula_structural       H144C252N16Cl16O16C2Sn2C2HTe2HMgC2Sn2C2HTe2HMgC2Sn2C2HTe2HMgC2Sn2C2HTe2HMgC2Sn2C2HTe2HMgC2Sn2C2HTe2HMgC2Sn2C2HTe2HMgC2Sn2C2HTe2HMgC2Sn2C2HTe2HMgC2Sn2C2HTe2HMgC2Sn2C2HTe2HMgC2Sn2C2HTe2HMg
_chemical_formula_sum              "H168 C300 N16 Cl16 O16 Sn24 Te24 Mg12"
_cell_length_a       35.3879
_cell_length_b       35.6995
_cell_length_c       7.53598
_cell_angle_alpha    90.0034
_cell_angle_beta     89.8941
_cell_angle_gamma    90.1211

_symmetry_space_group_name_H-M    'P1'
_space_group_IT_number       1

loop_
  _space_group_symop_operation_xyz
  'x, y, z'

loop_
  _atom_site_type_symbol
  _atom_site_label
  _atom_site_symmetry_multiplicity
  _atom_site_fract_x
  _atom_site_fract_y
  _atom_site_fract_z
  _atom_site_occupancy
  H   H1        1.0  0.19107  0.94525  0.35123  1.0000
  H   H2        1.0  0.30983  0.55695  0.85003  1.0000
  H   H3        1.0  0.05733  0.69034  0.61083  1.0000
  H   H4        1.0  0.44276  0.80944  0.10817  1.0000
  H   H5        1.0  0.69022  0.44706  0.86463  1.0000
  H   H6        1.0  0.80899  0.05713  0.35439  1.0000
  H   H7        1.0  0.55329  0.18815  0.11578  1.0000
  H   H8        1.0  0.94355  0.31042  0.60948  1.0000
  H   H9        1.0  0.14085  0.89718  0.38019  1.0000
  H   H10       1.0  0.36008  0.60496  0.87556  1.0000
  H   H11       1.0  0.10508  0.64009  0.64358  1.0000
  H   H12       1.0  0.39398  0.85886  0.13443  1.0000
  H   H13       1.0  0.64051  0.39852  0.89210  1.0000
  H   H14       1.0  0.85976  0.10470  0.37855  1.0000
  H   H15       1.0  0.60175  0.13832  0.14097  1.0000
  H   H16       1.0  0.89558  0.36063  0.63501  1.0000
  H   H17       1.0  0.10241  0.92125  0.85312  1.0000
  H   H18       1.0  0.39659  0.58179  0.34404  1.0000
  H   H19       1.0  0.08192  0.60147  0.11629  1.0000
  H   H20       1.0  0.41822  0.89622  0.60556  1.0000
  H   H21       1.0  0.60272  0.42175  0.36346  1.0000
  H   H22       1.0  0.89621  0.08043  0.84817  1.0000
  H   H23       1.0  0.57802  0.10212  0.61006  1.0000
  H   H24       1.0  0.91936  0.39625  0.10326  1.0000
  H   H25       1.0  0.18467  0.02072  0.64959  1.0000
  H   H26       1.0  0.31555  0.48113  0.14823  1.0000
  H   H27       1.0  0.98277  0.68292  0.90574  1.0000
  H   H28       1.0  0.52012  0.81661  0.40839  1.0000
  H   H29       1.0  0.68394  0.52188  0.16067  1.0000
  H   H30       1.0  0.81396  0.98042  0.65446  1.0000
  H   H31       1.0  0.47764  0.18341  0.41260  1.0000
  H   H32       1.0  0.01979  0.31494  0.90644  1.0000
  H   H33       1.0  0.26250  0.05661  0.51867  1.0000
  H   H34       1.0  0.24050  0.44427  0.02248  1.0000
  H   H35       1.0  0.94445  0.75837  0.77694  1.0000
  H   H36       1.0  0.55557  0.74019  0.27887  1.0000
  H   H37       1.0  0.76234  0.55720  0.03472  1.0000
  H   H38       1.0  0.73945  0.94486  0.53049  1.0000
  H   H39       1.0  0.44139  0.25621  0.29448  1.0000
  H   H40       1.0  0.05652  0.24075  0.77977  1.0000
  H   H41       1.0  0.24311  0.92566  0.04161  1.0000
  H   H42       1.0  0.25655  0.57586  0.54582  1.0000
  H   H43       1.0  0.07663  0.74343  0.29627  1.0000
  H   H44       1.0  0.42408  0.75726  0.79760  1.0000
  H   H45       1.0  0.74207  0.42759  0.54969  1.0000
  H   H46       1.0  0.75563  0.07599  0.05182  1.0000
  H   H47       1.0  0.57204  0.24090  0.80486  1.0000
  H   H48       1.0  0.92394  0.25704  0.30445  1.0000
  H   H49       1.0  0.28806  0.87519  0.11887  1.0000
  H   H50       1.0  0.21100  0.62546  0.62707  1.0000
  H   H51       1.0  0.12623  0.78991  0.37090  1.0000
  H   H52       1.0  0.37402  0.71123  0.87111  1.0000
  H   H53       1.0  0.78789  0.37747  0.61913  1.0000
  H   H54       1.0  0.70985  0.12559  0.13060  1.0000
  H   H55       1.0  0.62187  0.28739  0.87505  1.0000
  H   H56       1.0  0.87453  0.21034  0.37864  1.0000
  H   H57       1.0  0.32936  0.94028  0.55762  1.0000
  H   H58       1.0  0.17150  0.55942  0.06618  1.0000
  H   H59       1.0  0.05953  0.82976  0.80822  1.0000
  H   H60       1.0  0.44009  0.67024  0.30809  1.0000
  H   H61       1.0  0.82963  0.44120  0.06156  1.0000
  H   H62       1.0  0.66915  0.05936  0.56709  1.0000
  H   H63       1.0  0.55595  0.32840  0.31283  1.0000
  H   H64       1.0  0.94138  0.17042  0.81481  1.0000
  H   H65       1.0  0.09572  0.96479  0.69345  1.0000
  H   H66       1.0  0.40378  0.53776  0.18605  1.0000
  H   H67       1.0  0.03860  0.59488  0.95297  1.0000
  H   H68       1.0  0.46277  0.90355  0.44771  1.0000
  H   H69       1.0  0.59559  0.46546  0.20314  1.0000
  H   H70       1.0  0.90289  0.03554  0.69255  1.0000
  H   H71       1.0  0.53381  0.09544  0.45203  1.0000
  H   H72       1.0  0.96368  0.40294  0.94443  1.0000
  H   H73       1.0  0.61904  0.54116  0.75178  1.0000
  H   H74       1.0  0.87971  0.95989  0.24140  1.0000
  H   H75       1.0  0.04289  0.38225  0.50357  1.0000
  H   H76       1.0  0.56642  0.54604  0.53613  1.0000
  H   H77       1.0  0.93365  0.95414  0.03045  1.0000
  H   H78       1.0  0.04873  0.43607  0.29510  1.0000
  H   H79       1.0  0.51360  0.44999  0.77572  1.0000
  H   H80       1.0  0.98602  0.05002  0.27214  1.0000
  H   H81       1.0  0.94878  0.48459  0.52285  1.0000
  H   H82       1.0  0.56555  0.44464  0.98558  1.0000
  H   H83       1.0  0.93281  0.05645  0.47613  1.0000
  H   H84       1.0  0.94249  0.43155  0.72496  1.0000
  H   H85       1.0  0.25510  0.03201  0.97049  1.0000
  H   H86       1.0  0.24530  0.46924  0.47366  1.0000
  H   H87       1.0  0.97076  0.75341  0.22482  1.0000
  H   H88       1.0  0.53252  0.74724  0.73346  1.0000
  H   H89       1.0  0.75460  0.53422  0.48198  1.0000
  H   H90       1.0  0.74423  0.96923  0.98366  1.0000
  H   H91       1.0  0.46596  0.25230  0.74271  1.0000
  H   H92       1.0  0.03117  0.24571  0.23346  1.0000
  H   H93       1.0  0.21694  0.07528  0.33957  1.0000
  H   H94       1.0  0.28649  0.42682  0.84285  1.0000
  H   H95       1.0  0.92763  0.71094  0.60020  1.0000
  H   H96       1.0  0.57366  0.78637  0.09965  1.0000
  H   H97       1.0  0.71574  0.57600  0.86175  1.0000
  H   H98       1.0  0.78567  0.92744  0.35220  1.0000
  H   H99       1.0  0.42353  0.20914  0.11831  1.0000
  H   H100      1.0  0.07467  0.28596  0.59643  1.0000
  H   H101      1.0  0.28572  0.96357  0.80872  1.0000
  H   H102      1.0  0.03747  0.78628  0.06190  1.0000
  H   H103      1.0  0.71229  0.03825  0.81718  1.0000
  H   H104      1.0  0.53476  0.28392  0.57331  1.0000
  H   H105      1.0  0.96441  0.21557  0.07188  1.0000
  H   H106      1.0  0.32600  0.97521  0.07434  1.0000
  H   H107      1.0  0.02484  0.82657  0.32529  1.0000
  H   H108      1.0  0.67245  0.02545  0.08331  1.0000
  H   H109      1.0  0.52404  0.32575  0.83332  1.0000
  H   H110      1.0  0.97576  0.17413  0.33276  1.0000
  H   H111      1.0  0.38143  0.06555  0.80040  1.0000
  H   H112      1.0  0.93181  0.87756  0.05156  1.0000
  H   H113      1.0  0.62218  0.93137  0.81711  1.0000
  H   H114      1.0  0.43219  0.37858  0.55881  1.0000
  H   H115      1.0  0.06464  0.11856  0.04687  1.0000
  H   H116      1.0  0.34110  0.05422  0.53574  1.0000
  H   H117      1.0  0.94424  0.83727  0.78827  1.0000
  H   H118      1.0  0.66168  0.94422  0.55045  1.0000
  H   H119      1.0  0.44258  0.33674  0.29920  1.0000
  H   H120      1.0  0.05400  0.16046  0.78796  1.0000
  H   H121      1.0  0.40371  0.04792  0.08588  1.0000
  H   H122      1.0  0.10625  0.44474  0.61869  1.0000
  H   H123      1.0  0.94769  0.89966  0.34041  1.0000
  H   H124      1.0  0.54142  0.59041  0.81006  1.0000
  H   H125      1.0  0.91150  0.54065  0.56954  1.0000
  H   H126      1.0  0.60147  0.94664  0.11248  1.0000
  H   H127      1.0  0.44969  0.40157  0.84354  1.0000
  H   H128      1.0  0.04590  0.09431  0.32671  1.0000
  H   H129      1.0  0.38616  0.95632  0.49234  1.0000
  H   H130      1.0  0.04002  0.88533  0.74970  1.0000
  H   H131      1.0  0.45511  0.61035  0.23223  1.0000
  H   H132      1.0  0.61343  0.04069  0.50972  1.0000
  H   H133      1.0  0.43334  0.95411  0.73640  1.0000
  H   H134      1.0  0.04220  0.93298  0.98903  1.0000
  H   H135      1.0  0.45265  0.56204  0.46958  1.0000
  H   H136      1.0  0.56530  0.04286  0.74928  1.0000
  H   H137      1.0  0.48782  0.05123  0.51590  1.0000
  H   H138      1.0  0.95001  0.99093  0.74090  1.0000
  H   H139      1.0  0.55500  0.51393  0.26448  1.0000
  H   H140      1.0  0.50680  0.95114  0.50194  1.0000
  H   H141      1.0  0.44083  0.05467  0.28210  1.0000
  H   H142      1.0  0.94711  0.94391  0.50814  1.0000
  H   H143      1.0  0.55852  0.56228  0.03629  1.0000
  H   H144      1.0  0.55444  0.94816  0.26924  1.0000
  C   C1        1.0  0.14954  0.95576  0.94160  1.0000
  C   C2        1.0  0.35025  0.54674  0.43708  1.0000
  C   C3        1.0  0.04738  0.64850  0.20180  1.0000
  C   C4        1.0  0.45346  0.85020  0.69715  1.0000
  C   C5        1.0  0.64919  0.45695  0.45364  1.0000
  C   C6        1.0  0.84939  0.04595  0.94182  1.0000
  C   C7        1.0  0.54292  0.14814  0.70294  1.0000
  C   C8        1.0  0.95421  0.35016  0.19619  1.0000
  C   C9        1.0  0.17624  0.96132  0.08310  1.0000
  C   C10       1.0  0.32403  0.54087  0.58071  1.0000
  C   C11       1.0  0.04161  0.67521  0.34228  1.0000
  C   C12       1.0  0.45920  0.82400  0.83964  1.0000
  C   C13       1.0  0.67566  0.46294  0.59561  1.0000
  C   C14       1.0  0.82309  0.04055  0.08556  1.0000
  C   C15       1.0  0.53709  0.17399  0.84675  1.0000
  C   C16       1.0  0.95979  0.32417  0.33981  1.0000
  C   C17       1.0  0.17189  0.94011  0.24166  1.0000
  C   C18       1.0  0.32870  0.56213  0.73890  1.0000
  C   C19       1.0  0.06257  0.67110  0.50200  1.0000
  C   C20       1.0  0.43756  0.82824  0.99768  1.0000
  C   C21       1.0  0.67132  0.44170  0.75420  1.0000
  C   C22       1.0  0.82791  0.06196  0.24314  1.0000
  C   C23       1.0  0.55850  0.16944  0.00486  1.0000
  C   C24       1.0  0.93846  0.32907  0.49827  1.0000
  C   C25       1.0  0.14397  0.91340  0.25900  1.0000
  C   C26       1.0  0.35665  0.58887  0.75432  1.0000
  C   C27       1.0  0.08915  0.64324  0.52142  1.0000
  C   C28       1.0  0.41046  0.85572  0.01358  1.0000
  C   C29       1.0  0.64364  0.41469  0.77083  1.0000
  C   C30       1.0  0.85613  0.08844  0.25790  1.0000
  C   C31       1.0  0.58544  0.14181  0.02006  1.0000
  C   C32       1.0  0.91181  0.35700  0.51379  1.0000
  C   C33       1.0  0.11920  0.90709  0.11598  1.0000
  C   C34       1.0  0.38104  0.59538  0.60957  1.0000
  C   C35       1.0  0.09563  0.61841  0.37945  1.0000
  C   C36       1.0  0.40402  0.88000  0.86949  1.0000
  C   C37       1.0  0.61910  0.40798  0.62736  1.0000
  C   C38       1.0  0.88059  0.09451  0.11304  1.0000
  C   C39       1.0  0.59188  0.11773  0.87514  1.0000
  C   C40       1.0  0.90544  0.38108  0.36891  1.0000
  C   C41       1.0  0.12166  0.92756  0.96084  1.0000
  C   C42       1.0  0.37796  0.57516  0.45399  1.0000
  C   C43       1.0  0.07549  0.62077  0.22313  1.0000
  C   C44       1.0  0.42474  0.87748  0.71450  1.0000
  C   C45       1.0  0.62164  0.42838  0.47201  1.0000
  C   C46       1.0  0.87741  0.07411  0.95801  1.0000
  C   C47       1.0  0.57143  0.12065  0.71981  1.0000
  C   C48       1.0  0.92583  0.37781  0.21326  1.0000
  C   C49       1.0  0.15220  0.97879  0.78527  1.0000
  C   C50       1.0  0.34747  0.52351  0.28159  1.0000
  C   C51       1.0  0.02451  0.65098  0.04467  1.0000
  C   C52       1.0  0.47698  0.84772  0.54182  1.0000
  C   C53       1.0  0.65188  0.47995  0.29734  1.0000
  C   C54       1.0  0.84633  0.02260  0.78681  1.0000
  C   C55       1.0  0.51977  0.15122  0.54690  1.0000
  C   C56       1.0  0.97755  0.34715  0.04026  1.0000
  C   C57       1.0  0.18210  0.00381  0.76913  1.0000
  C   C58       1.0  0.31778  0.49822  0.26733  1.0000
  C   C59       1.0  0.99964  0.68075  0.02580  1.0000
  C   C60       1.0  0.50268  0.81856  0.52701  1.0000
  C   C61       1.0  0.68163  0.50517  0.28097  1.0000
  C   C62       1.0  0.81640  0.99757  0.77325  1.0000
  C   C63       1.0  0.49459  0.18086  0.53224  1.0000
  C   C64       1.0  0.00265  0.31745  0.02584  1.0000
  C   C65       1.0  0.20866  0.00836  0.90591  1.0000
  C   C66       1.0  0.29139  0.49361  0.40537  1.0000
  C   C67       1.0  0.99502  0.70741  0.16112  1.0000
  C   C68       1.0  0.50725  0.79227  0.66405  1.0000
  C   C69       1.0  0.70816  0.51002  0.41773  1.0000
  C   C70       1.0  0.79004  0.99334  0.91168  1.0000
  C   C71       1.0  0.49002  0.20682  0.67080  1.0000
  C   C72       1.0  0.00695  0.29132  0.16392  1.0000
  C   C73       1.0  0.20630  0.98773  0.06355  1.0000
  C   C74       1.0  0.29414  0.51418  0.56309  1.0000
  C   C75       1.0  0.01529  0.70508  0.31998  1.0000
  C   C76       1.0  0.48611  0.79451  0.82088  1.0000
  C   C77       1.0  0.70564  0.48951  0.57575  1.0000
  C   C78       1.0  0.79297  0.01410  0.06880  1.0000
  C   C79       1.0  0.51043  0.20364  0.82893  1.0000
  C   C80       1.0  0.98627  0.29427  0.32192  1.0000
  C   C81       1.0  0.23484  0.99266  0.20622  1.0000
  C   C82       1.0  0.26614  0.50873  0.70818  1.0000
  C   C83       1.0  0.00956  0.73335  0.46223  1.0000
  C   C84       1.0  0.49121  0.76634  0.96387  1.0000
  C   C85       1.0  0.73426  0.49430  0.71813  1.0000
  C   C86       1.0  0.76492  0.00897  0.21420  1.0000
  C   C87       1.0  0.50512  0.23141  0.97368  1.0000
  C   C88       1.0  0.99152  0.26646  0.46674  1.0000
  C   C89       1.0  0.23697  0.02597  0.30218  1.0000
  C   C90       1.0  0.26500  0.47540  0.80442  1.0000
  C   C91       1.0  0.97609  0.73392  0.55989  1.0000
  C   C92       1.0  0.52453  0.76516  0.06156  1.0000
  C   C93       1.0  0.73634  0.52726  0.81670  1.0000
  C   C94       1.0  0.76389  0.97584  0.31193  1.0000
  C   C95       1.0  0.47209  0.23184  0.07464  1.0000
  C   C96       1.0  0.02509  0.26528  0.56286  1.0000
  C   C97       1.0  0.26261  0.03048  0.44407  1.0000
  C   C98       1.0  0.23968  0.47035  0.94762  1.0000
  C   C99       1.0  0.97057  0.75955  0.70041  1.0000
  C   C100      1.0  0.52945  0.73957  0.20269  1.0000
  C   C101      1.0  0.76225  0.53136  0.95794  1.0000
  C   C102      1.0  0.73845  0.97083  0.45476  1.0000
  C   C103      1.0  0.46720  0.25747  0.21578  1.0000
  C   C104      1.0  0.03024  0.23996  0.70493  1.0000
  C   C105      1.0  0.28623  0.00184  0.49736  1.0000
  C   C106      1.0  0.21553  0.49849  0.00249  1.0000
  C   C107      1.0  0.99858  0.78443  0.75127  1.0000
  C   C108      1.0  0.50108  0.71505  0.25229  1.0000
  C   C109      1.0  0.78604  0.50259  0.00756  1.0000
  C   C110      1.0  0.71399  0.99886  0.50787  1.0000
  C   C111      1.0  0.49537  0.28240  0.26373  1.0000
  C   C112      1.0  0.00194  0.21559  0.75736  1.0000
  C   C113      1.0  0.28571  0.96722  0.40090  1.0000
  C   C114      1.0  0.21521  0.53316  0.90640  1.0000
  C   C115      1.0  0.03348  0.78514  0.65416  1.0000
  C   C116      1.0  0.46641  0.71474  0.15454  1.0000
  C   C117      1.0  0.78553  0.46833  0.90864  1.0000
  C   C118      1.0  0.71363  0.03340  0.41074  1.0000
  C   C119      1.0  0.52983  0.28320  0.16331  1.0000
  C   C120      1.0  0.96709  0.21515  0.66078  1.0000
  C   C121      1.0  0.26034  0.96302  0.25325  1.0000
  C   C122      1.0  0.24021  0.53787  0.75716  1.0000
  C   C123      1.0  0.03849  0.75988  0.50727  1.0000
  C   C124      1.0  0.46183  0.74021  0.00841  1.0000
  C   C125      1.0  0.75989  0.46456  0.76195  1.0000
  C   C126      1.0  0.73887  0.03808  0.26231  1.0000
  C   C127      1.0  0.53432  0.25783  0.01670  1.0000
  C   C128      1.0  0.96221  0.24042  0.51399  1.0000
  C   C129      1.0  0.26190  0.92908  0.15441  1.0000
  C   C130      1.0  0.23800  0.57192  0.65943  1.0000
  C   C131      1.0  0.07267  0.76227  0.40808  1.0000
  C   C132      1.0  0.42779  0.73825  0.90886  1.0000
  C   C133      1.0  0.76131  0.43091  0.66090  1.0000
  C   C134      1.0  0.73680  0.07209  0.16443  1.0000
  C   C135      1.0  0.56829  0.25999  0.91579  1.0000
  C   C136      1.0  0.92799  0.23810  0.41573  1.0000
  C   C137      1.0  0.28679  0.90073  0.19716  1.0000
  C   C138      1.0  0.21277  0.59983  0.70435  1.0000
  C   C139      1.0  0.10054  0.78792  0.44960  1.0000
  C   C140      1.0  0.39966  0.71280  0.94978  1.0000
  C   C141      1.0  0.78659  0.40266  0.69976  1.0000
  C   C142      1.0  0.71142  0.09996  0.20800  1.0000
  C   C143      1.0  0.59629  0.28570  0.95469  1.0000
  C   C144      1.0  0.90022  0.21225  0.45689  1.0000
  C   C145      1.0  0.31092  0.90519  0.34474  1.0000
  C   C146      1.0  0.18893  0.59487  0.85290  1.0000
  C   C147      1.0  0.09534  0.81206  0.59599  1.0000
  C   C148      1.0  0.40448  0.68844  0.09567  1.0000
  C   C149      1.0  0.81114  0.40675  0.84603  1.0000
  C   C150      1.0  0.68713  0.09492  0.35494  1.0000
  C   C151      1.0  0.59138  0.31029  0.09970  1.0000
  C   C152      1.0  0.90547  0.18795  0.60260  1.0000
  C   C153      1.0  0.31054  0.93750  0.44479  1.0000
  C   C154      1.0  0.19002  0.56248  0.95216  1.0000
  C   C155      1.0  0.06278  0.81084  0.69652  1.0000
  C   C156      1.0  0.43694  0.68919  0.19642  1.0000
  C   C157      1.0  0.81065  0.43862  0.94923  1.0000
  C   C158      1.0  0.68808  0.06256  0.45455  1.0000
  C   C159      1.0  0.55909  0.30918  0.20224  1.0000
  C   C160      1.0  0.93792  0.18933  0.70324  1.0000
  C   C161      1.0  0.12234  0.97800  0.65192  1.0000
  C   C162      1.0  0.37724  0.52405  0.14725  1.0000
  C   C163      1.0  0.02516  0.62120  0.91227  1.0000
  C   C164      1.0  0.47616  0.87714  0.40762  1.0000
  C   C165      1.0  0.62223  0.47889  0.16305  1.0000
  C   C166      1.0  0.87600  0.02279  0.65196  1.0000
  C   C167      1.0  0.52050  0.12189  0.41212  1.0000
  C   C168      1.0  0.97724  0.37655  0.90560  1.0000
  C   C169      1.0  0.59577  0.49372  0.88846  1.0000
  C   C170      1.0  0.90283  0.00727  0.37904  1.0000
  C   C171      1.0  0.99354  0.40351  0.63455  1.0000
  C   C172      1.0  0.31100  0.00792  0.65316  1.0000
  C   C173      1.0  0.99183  0.80925  0.90607  1.0000
  C   C174      1.0  0.68934  0.99230  0.66423  1.0000
  C   C175      1.0  0.48941  0.30763  0.41770  1.0000
  C   C176      1.0  0.00831  0.19056  0.91149  1.0000
  C   C177      1.0  0.59551  0.52150  0.75645  1.0000
  C   C178      1.0  0.90347  0.97925  0.24792  1.0000
  C   C179      1.0  0.02266  0.40516  0.50757  1.0000
  C   C180      1.0  0.56586  0.52393  0.63513  1.0000
  C   C181      1.0  0.93376  0.97630  0.12945  1.0000
  C   C182      1.0  0.02563  0.43538  0.39039  1.0000
  C   C183      1.0  0.53571  0.49839  0.63843  1.0000
  C   C184      1.0  0.96412  0.00154  0.13572  1.0000
  C   C185      1.0  0.99929  0.46465  0.39342  1.0000
  C   C186      1.0  0.53659  0.47015  0.76854  1.0000
  C   C187      1.0  0.96289  0.03002  0.26440  1.0000
  C   C188      1.0  0.96973  0.46240  0.51786  1.0000
  C   C189      1.0  0.56601  0.46740  0.88971  1.0000
  C   C190      1.0  0.93281  0.03337  0.38199  1.0000
  C   C191      1.0  0.96641  0.43240  0.63434  1.0000
  C   C192      1.0  0.30691  0.98566  0.80657  1.0000
  C   C193      1.0  0.01457  0.80652  0.05906  1.0000
  C   C194      1.0  0.69216  0.01521  0.81609  1.0000
  C   C195      1.0  0.51245  0.30480  0.56963  1.0000
  C   C196      1.0  0.98627  0.19424  0.06660  1.0000
  C   C197      1.0  0.32893  0.99228  0.95553  1.0000
  C   C198      1.0  0.00741  0.82860  0.20695  1.0000
  C   C199      1.0  0.67038  0.00794  0.96564  1.0000
  C   C200      1.0  0.50643  0.32777  0.71557  1.0000
  C   C201      1.0  0.99271  0.17150  0.21284  1.0000
  C   C202      1.0  0.35640  0.02088  0.95448  1.0000
  C   C203      1.0  0.97768  0.85477  0.20547  1.0000
  C   C204      1.0  0.64456  0.97787  0.96741  1.0000
  C   C205      1.0  0.47760  0.35489  0.71290  1.0000
  C   C206      1.0  0.02073  0.14357  0.20652  1.0000
  C   C207      1.0  0.36001  0.04359  0.80306  1.0000
  C   C208      1.0  0.95457  0.85707  0.05457  1.0000
  C   C209      1.0  0.64227  0.95452  0.81772  1.0000
  C   C210      1.0  0.45425  0.35737  0.56285  1.0000
  C   C211      1.0  0.04319  0.14036  0.05344  1.0000
  C   C212      1.0  0.33754  0.03719  0.65433  1.0000
  C   C213      1.0  0.96157  0.83463  0.90667  1.0000
  C   C214      1.0  0.66431  0.96175  0.66789  1.0000
  C   C215      1.0  0.46008  0.33402  0.41699  1.0000
  C   C216      1.0  0.03717  0.16370  0.90788  1.0000
  C   C217      1.0  0.38275  0.02535  0.10158  1.0000
  C   C218      1.0  0.12241  0.47113  0.61751  1.0000
  C   C219      1.0  0.97227  0.88098  0.35196  1.0000
  C   C220      1.0  0.52332  0.61466  0.84000  1.0000
  C   C221      1.0  0.88702  0.52255  0.59809  1.0000
  C   C222      1.0  0.61871  0.97234  0.11647  1.0000
  C   C223      1.0  0.47331  0.38178  0.85739  1.0000
  C   C224      1.0  0.02474  0.11635  0.34965  1.0000
  C   C225      1.0  0.40955  0.00525  0.36995  1.0000
  C   C226      1.0  0.99344  0.91036  0.61313  1.0000
  C   C227      1.0  0.50634  0.58979  0.11630  1.0000
  C   C228      1.0  0.58822  0.99428  0.37381  1.0000
  C   C229      1.0  0.40831  0.97739  0.50127  1.0000
  C   C230      1.0  0.01997  0.90835  0.75110  1.0000
  C   C231      1.0  0.47704  0.58915  0.24206  1.0000
  C   C232      1.0  0.59022  0.02070  0.51147  1.0000
  C   C233      1.0  0.43500  0.97617  0.63745  1.0000
  C   C234      1.0  0.02113  0.93533  0.88513  1.0000
  C   C235      1.0  0.47583  0.56199  0.37497  1.0000
  C   C236      1.0  0.56295  0.02190  0.64553  1.0000
  C   C237      1.0  0.46421  0.00247  0.64488  1.0000
  C   C238      1.0  0.99618  0.96560  0.88412  1.0000
  C   C239      1.0  0.50374  0.53446  0.38626  1.0000
  C   C240      1.0  0.53234  0.99715  0.64438  1.0000
  C   C241      1.0  0.46495  0.03086  0.51481  1.0000
  C   C242      1.0  0.96915  0.96721  0.74704  1.0000
  C   C243      1.0  0.53337  0.53549  0.26118  1.0000
  C   C244      1.0  0.53075  0.97019  0.50777  1.0000
  C   C245      1.0  0.43824  0.03264  0.38098  1.0000
  C   C246      1.0  0.96755  0.94035  0.61437  1.0000
  C   C247      1.0  0.53511  0.56271  0.12997  1.0000
  C   C248      1.0  0.55796  0.96850  0.37540  1.0000
  C   C249      1.0  0.99890  0.99934  0.01226  1.0000
  C   C250      1.0  0.50124  0.50058  0.51319  1.0000
  C   C251      1.0  0.00166  0.49931  0.27127  1.0000
  C   C252      1.0  0.49821  0.99984  0.77249  1.0000
  N   N1        1.0  0.12573  0.99351  0.49738  1.0000
  N   N2        1.0  0.37385  0.50758  0.99502  1.0000
  N   N3        1.0  0.00923  0.62462  0.75867  1.0000
  N   N4        1.0  0.49189  0.87354  0.25340  1.0000
  N   N5        1.0  0.62607  0.49443  0.00882  1.0000
  N   N6        1.0  0.87208  0.00723  0.49783  1.0000
  N   N7        1.0  0.50483  0.12556  0.25800  1.0000
  N   N8        1.0  0.99369  0.37302  0.75282  1.0000
  N   N9        1.0  0.38236  0.00259  0.23505  1.0000
  N   N10       1.0  0.11858  0.49683  0.73688  1.0000
  N   N11       1.0  0.99637  0.88295  0.48023  1.0000
  N   N12       1.0  0.50441  0.61777  0.98589  1.0000
  N   N13       1.0  0.88377  0.50345  0.74285  1.0000
  N   N14       1.0  0.61553  0.99738  0.23935  1.0000
  N   N15       1.0  0.49715  0.38293  0.98697  1.0000
  N   N16       1.0  0.00310  0.11726  0.48789  1.0000
  Cl  Cl1       1.0  0.08434  0.87273  0.13715  1.0000
  Cl  Cl2       1.0  0.41616  0.62945  0.62954  1.0000
  Cl  Cl3       1.0  0.12973  0.58358  0.40292  1.0000
  Cl  Cl4       1.0  0.36943  0.91448  0.88938  1.0000
  Cl  Cl5       1.0  0.58460  0.37321  0.64797  1.0000
  Cl  Cl6       1.0  0.91598  0.12835  0.13249  1.0000
  Cl  Cl7       1.0  0.62653  0.08328  0.89373  1.0000
  Cl  Cl8       1.0  0.87126  0.41604  0.38807  1.0000
  Cl  Cl9       1.0  0.34194  0.86908  0.40152  1.0000
  Cl  Cl10      1.0  0.15746  0.63038  0.91209  1.0000
  Cl  Cl11      1.0  0.13081  0.84413  0.65039  1.0000
  Cl  Cl12      1.0  0.36853  0.65671  0.14883  1.0000
  Cl  Cl13      1.0  0.84257  0.37069  0.89759  1.0000
  Cl  Cl14      1.0  0.65504  0.13016  0.41060  1.0000
  Cl  Cl15      1.0  0.62690  0.34261  0.15004  1.0000
  Cl  Cl16      1.0  0.87024  0.15546  0.65575  1.0000
  O   O1        1.0  0.23647  0.03426  0.87554  1.0000
  O   O2        1.0  0.26352  0.46767  0.37632  1.0000
  O   O3        1.0  0.96927  0.73513  0.12845  1.0000
  O   O4        1.0  0.53365  0.76498  0.63475  1.0000
  O   O5        1.0  0.73600  0.53597  0.38659  1.0000
  O   O6        1.0  0.76192  0.96763  0.88417  1.0000
  O   O7        1.0  0.46433  0.23484  0.64306  1.0000
  O   O8        1.0  0.03266  0.26338  0.13457  1.0000
  O   O9        1.0  0.21299  0.05473  0.25713  1.0000
  O   O10       1.0  0.28963  0.44720  0.75845  1.0000
  O   O11       1.0  0.94854  0.70821  0.51748  1.0000
  O   O12       1.0  0.55279  0.79002  0.01789  1.0000
  O   O13       1.0  0.71215  0.55609  0.77541  1.0000
  O   O14       1.0  0.78874  0.94774  0.26737  1.0000
  O   O15       1.0  0.44429  0.20614  0.03495  1.0000
  O   O16       1.0  0.05342  0.28993  0.51720  1.0000
  C   C253      1.0  0.05273  0.46374  0.89536  1.0000
  C   C254      1.0  0.08351  0.48748  0.86492  1.0000
  C  Sn1       1.0  0.09213  0.51596  0.98553  1.0000
  C  Sn2       1.0  0.06985  0.52067  0.13936  1.0000
  C   C255      1.0  0.03913  0.49676  0.16867  1.0000
  C   C256      1.0  0.03075  0.46836  0.04709  1.0000
  H   H145      1.0  0.04626  0.44176  0.80135  1.0000
  O  Te1       1.0  0.12298  0.53943  0.95305  1.0000
  O  Te2       1.0  0.07784  0.54889  0.26211  1.0000
  H   H146      1.0  0.00693  0.44997  0.07075  1.0000
  Mg  Mg1       1.0  0.12287  0.57381  0.15932  1.0000
  C   C257      1.0  0.03819  0.53968  0.56013  1.0000
  C   C258      1.0  0.01012  0.53243  0.43446  1.0000
  C  Sn3       1.0  0.98165  0.55867  0.40332  1.0000
  C  Sn4       1.0  0.98137  0.59278  0.49995  1.0000
  C   C259      1.0  0.00959  0.59978  0.62530  1.0000
  C   C260      1.0  0.03794  0.57332  0.65544  1.0000
  H   H147      1.0  0.06013  0.51922  0.58339  1.0000
  O  Te3       1.0  0.95382  0.55097  0.27734  1.0000
  O  Te4       1.0  0.95326  0.61950  0.47142  1.0000
  H   H148      1.0  0.05968  0.57895  0.75267  1.0000
  Mg  Mg2       1.0  0.92145  0.59614  0.28581  1.0000
  C   C261      1.0  0.80943  0.48428  0.36409  1.0000
  C   C262      1.0  0.80843  0.50336  0.20226  1.0000
  C  Sn5       1.0  0.83548  0.53075  0.16361  1.0000
  C  Sn6       1.0  0.86404  0.53911  0.28955  1.0000
  C   C263      1.0  0.86481  0.51985  0.45102  1.0000
  C   C264      1.0  0.83759  0.49251  0.48836  1.0000
  H   H149      1.0  0.78839  0.46311  0.39296  1.0000
  O  Te5       1.0  0.83406  0.54955  0.00132  1.0000
  O  Te6       1.0  0.89143  0.56634  0.25431  1.0000
  H   H150      1.0  0.83839  0.47772  0.61362  1.0000
  Mg  Mg3       1.0  0.87764  0.58435  0.01456  1.0000
  C   C265      1.0  0.16047  0.45407  0.19014  1.0000
  C   C266      1.0  0.18416  0.48456  0.15508  1.0000
  C  Sn7       1.0  0.19114  0.51130  0.28641  1.0000
  C  Sn8       1.0  0.17406  0.50737  0.45587  1.0000
  C   C267      1.0  0.15042  0.47676  0.48967  1.0000
  C   C268      1.0  0.14361  0.45016  0.35727  1.0000
  H   H151      1.0  0.15522  0.43348  0.08775  1.0000
  O  Te7       1.0  0.21488  0.54160  0.24912  1.0000
  O  Te8       1.0  0.18056  0.53369  0.58956  1.0000
  H   H152      1.0  0.12529  0.42655  0.38450  1.0000
  Mg  Mg4       1.0  0.21505  0.57011  0.47461  1.0000
  C   C269      1.0  0.46791  0.46558  0.20322  1.0000
  C   C270      1.0  0.49004  0.46676  0.35653  1.0000
  C  Sn9       1.0  0.51700  0.43902  0.38808  1.0000
  C  Sn10      1.0  0.52184  0.40960  0.26357  1.0000
  C   C271      1.0  0.49958  0.40868  0.11054  1.0000
  C   C272      1.0  0.47268  0.43657  0.08031  1.0000
  H   H153      1.0  0.44711  0.48716  0.17977  1.0000
  O  Te9       1.0  0.53886  0.44062  0.54196  1.0000
  O  Te10      1.0  0.54859  0.38153  0.29177  1.0000
  H   H154      1.0  0.45517  0.43567  0.96154  1.0000
  Mg  Mg5       1.0  0.57159  0.39589  0.52129  1.0000
  C   C273      1.0  0.91623  0.47105  0.03786  1.0000
  C   C274      1.0  0.90988  0.49861  0.90920  1.0000
  C  Sn11      1.0  0.93499  0.52867  0.89295  1.0000
  C  Sn12      1.0  0.96702  0.53111  0.00778  1.0000
  C   C275      1.0  0.97274  0.50340  0.13598  1.0000
  C   C276      1.0  0.94743  0.47345  0.15113  1.0000
  H   H155      1.0  0.89666  0.44786  0.04953  1.0000
  O  Te11      1.0  0.92861  0.55595  0.76373  1.0000
  O  Te12      1.0  0.99217  0.56087  0.99438  1.0000
  H   H156      1.0  0.95206  0.45211  0.25068  1.0000
  Mg  Mg6       1.0  0.97138  0.59111  0.79731  1.0000
  C   C277      1.0  0.52690  0.92733  0.90860  1.0000
  C   C278      1.0  0.50215  0.95732  0.88388  1.0000
  C  Sn13      1.0  0.47068  0.96156  0.99426  1.0000
  C  Sn14      1.0  0.46434  0.93522  0.13185  1.0000
  C   C279      1.0  0.48928  0.90533  0.15557  1.0000
  C   C280      1.0  0.52068  0.90135  0.04432  1.0000
  H   H157      1.0  0.55120  0.92426  0.82260  1.0000
  O  Te13      1.0  0.44624  0.99168  0.96768  1.0000
  O  Te14      1.0  0.43312  0.93880  0.24413  1.0000
  H   H158      1.0  0.53985  0.87814  0.06357  1.0000
  Mg  Mg7       1.0  0.40794  0.98455  0.15502  1.0000
  C   C281      1.0  0.08936  0.02557  0.20990  1.0000
  C   C282      1.0  0.09450  0.00095  0.35194  1.0000
  C  Sn15      1.0  0.07070  0.97210  0.38278  1.0000
  C  Sn16      1.0  0.03906  0.96790  0.26906  1.0000
  C   C283      1.0  0.03419  0.99266  0.12725  1.0000
  C   C284      1.0  0.05817  0.02143  0.09764  1.0000
  H   H159      1.0  0.10958  0.04782  0.18692  1.0000
  O  Te15      1.0  0.07625  0.94776  0.52533  1.0000
  O  Te16      1.0  0.01271  0.93930  0.29681  1.0000
  H   H160      1.0  0.05381  0.04049  0.98759  1.0000
  Mg  Mg8       1.0  0.03255  0.91318  0.50875  1.0000
  C   C285      1.0  0.48432  0.69185  0.61089  1.0000
  C   C286      1.0  0.50280  0.69286  0.44691  1.0000
  C  Sn17      1.0  0.53009  0.66602  0.40519  1.0000
  C  Sn18      1.0  0.53898  0.63768  0.53022  1.0000
  C   C287      1.0  0.52032  0.63689  0.69386  1.0000
  C   C288      1.0  0.49306  0.66389  0.73426  1.0000
  H   H161      1.0  0.46322  0.71272  0.64213  1.0000
  O  Te17      1.0  0.54829  0.66745  0.24077  1.0000
  O  Te18      1.0  0.56613  0.61051  0.49193  1.0000
  H   H162      1.0  0.47875  0.66309  0.86119  1.0000
  Mg  Mg9       1.0  0.58322  0.62422  0.25014  1.0000
  C   C289      1.0  0.42829  0.47174  0.65333  1.0000
  C   C290      1.0  0.45828  0.49655  0.62471  1.0000
  C  Sn19      1.0  0.46239  0.52831  0.73133  1.0000
  C  Sn20      1.0  0.43595  0.53528  0.86909  1.0000
  C   C291      1.0  0.40605  0.51028  0.89673  1.0000
  C   C292      1.0  0.40219  0.47859  0.78922  1.0000
  H   H163      1.0  0.42531  0.44721  0.57023  1.0000
  O  Te19      1.0  0.49252  0.55281  0.70087  1.0000
  O  Te20      1.0  0.43939  0.56680  0.97765  1.0000
  H   H164      1.0  0.37898  0.45937  0.81149  1.0000
  Mg  Mg10      1.0  0.48520  0.59194  0.88403  1.0000
  C   C293      1.0  0.97199  0.08589  0.78904  1.0000
  C   C294      1.0  0.99889  0.09096  0.65516  1.0000
  C  Sn21      1.0  0.02784  0.06486  0.63173  1.0000
  C  Sn22      1.0  0.02981  0.03312  0.74461  1.0000
  C   C295      1.0  0.00274  0.02829  0.87808  1.0000
  C   C296      1.0  0.97390  0.05458  0.90039  1.0000
  H   H165      1.0  0.94966  0.10622  0.80626  1.0000
  O  Te21      1.0  0.05449  0.07036  0.49735  1.0000
  O  Te22      1.0  0.05843  0.00659  0.72408  1.0000
  H   H166      1.0  0.95345  0.05062  0.00399  1.0000
  Mg  Mg11      1.0  0.08817  0.02643  0.52192  1.0000
  C   C297      1.0  0.47251  0.09024  0.96698  1.0000
  C   C298      1.0  0.49729  0.09499  0.11090  1.0000
  C  Sn23      1.0  0.52557  0.06871  0.14467  1.0000
  C  Sn24      1.0  0.52945  0.03710  0.03200  1.0000
  C   C299      1.0  0.50453  0.03261  0.88830  1.0000
  C   C300      1.0  0.47632  0.05908  0.85576  1.0000
  H   H167      1.0  0.45069  0.11073  0.94173  1.0000
  O  Te23      1.0  0.54969  0.07389  0.28907  1.0000
  O  Te24      1.0  0.55748  0.01041  0.06267  1.0000
  H   H168      1.0  0.45745  0.05539  0.74425  1.0000
  Mg  Mg12      1.0  0.58348  0.02981  0.27628  1.0000
