data_image0
_chemical_formula_structural       H160C240N16O24C2Sn2C2HTe2HMgC2Sn2C2HTe2HMgC2Sn2C2HTe2HMgC2Sn2C2HTe2HMgC2Sn2C2HTe2HMgC2Sn2C2HTe2HMgC2Sn2C2HTe2HMgC2Sn2C2HTe2HMgC2Sn2C2HTe2HMgC2Sn2C2HTe2HMgC2Sn2C2HTe2HMgC2Sn2C2HTe2HMgC2Sn2C2HTe2HMgC2Sn2C2HTe2HMgC2Sn2C2HTe2HMgC2Sn2C2HTe2HMgC2Sn2C2HTe2HMgC2Sn2C2HTe2HMgC2Sn2C2HTe2HMgC2Sn2C2HTe2HMgC2Sn2C2HTe2HMgC2Sn2C2HTe2HMgC2Sn2C2HTe2HMgC2Sn2C2HTe2HMg
_chemical_formula_sum              "H208 C336 N16 O24 Sn48 Te48 Mg24"
_cell_length_a       54.1166
_cell_length_b       40.865
_cell_length_c       15.582
_cell_angle_alpha    137.68
_cell_angle_beta     90.6145
_cell_angle_gamma    89.9653

_symmetry_space_group_name_H-M    'P1'
_space_group_IT_number       1

loop_
  _space_group_symop_operation_xyz
  'x, y, z'

loop_
  _atom_site_type_symbol
  _atom_site_label
  _atom_site_symmetry_multiplicity
  _atom_site_fract_x
  _atom_site_fract_y
  _atom_site_fract_z
  _atom_site_occupancy
  H   H1        1.0  0.98077  0.85410  0.41795  1.0000
  H   H2        1.0  0.00758  0.88392  0.43555  1.0000
  H   H3        1.0  0.96950  0.91255  0.94727  1.0000
  H   H4        1.0  0.98024  0.95336  0.10794  1.0000
  H   H5        1.0  0.42889  0.39677  0.04309  1.0000
  H   H6        1.0  0.43446  0.40957  0.17873  1.0000
  H   H7        1.0  0.47539  0.38428  0.00341  1.0000
  H   H8        1.0  0.45986  0.34065  0.98374  1.0000
  H   H9        1.0  0.46375  0.63414  0.23135  1.0000
  H   H10       1.0  0.45828  0.58290  0.19839  1.0000
  H   H11       1.0  0.47770  0.57756  0.00377  1.0000
  H   H12       1.0  0.44573  0.57334  0.02121  1.0000
  H   H13       1.0  0.98995  0.05105  0.47310  1.0000
  H   H14       1.0  0.96825  0.09272  0.11033  1.0000
  H   H15       1.0  0.94659  0.03584  0.39568  1.0000
  H   H16       1.0  0.93744  0.02473  0.48188  1.0000
  H   H17       1.0  0.11268  0.05656  0.16685  1.0000
  H   H18       1.0  0.54627  0.36324  0.20454  1.0000
  H   H19       1.0  0.57955  0.34161  0.26592  1.0000
  H   H20       1.0  0.61611  0.36495  0.39647  1.0000
  H   H21       1.0  0.64914  0.51551  0.14482  1.0000
  H   H22       1.0  0.61500  0.53353  0.08101  1.0000
  H   H23       1.0  0.56304  0.64693  0.10502  1.0000
  H   H24       1.0  0.53349  0.61284  0.14569  1.0000
  H   H25       1.0  0.60203  0.64024  0.01189  1.0000
  H   H26       1.0  0.64575  0.51307  0.30560  1.0000
  H   H27       1.0  0.61496  0.47762  0.33271  1.0000
  H   H28       1.0  0.43882  0.50628  0.14488  1.0000
  H   H29       1.0  0.40872  0.57399  0.26265  1.0000
  H   H30       1.0  0.37768  0.62520  0.42602  1.0000
  H   H31       1.0  0.36005  0.61128  0.16923  1.0000
  H   H32       1.0  0.39072  0.54627  0.05812  1.0000
  H   H33       1.0  0.45015  0.39794  0.40752  1.0000
  H   H34       1.0  0.47892  0.45647  0.45132  1.0000
  H   H35       1.0  0.40818  0.37023  0.37934  1.0000
  H   H36       1.0  0.34825  0.41985  0.31558  1.0000
  H   H37       1.0  0.37706  0.47009  0.33053  1.0000
  H   H38       1.0  0.49372  0.52896  0.11801  1.0000
  H   H39       1.0  0.49599  0.57812  0.28767  1.0000
  H   H40       1.0  0.53585  0.54317  0.21975  1.0000
  H   H41       1.0  0.53916  0.59589  0.25680  1.0000
  H   H42       1.0  0.50593  0.42764  0.13872  1.0000
  H   H43       1.0  0.51788  0.37361  0.08135  1.0000
  H   H44       1.0  0.51510  0.41482  0.30756  1.0000
  H   H45       1.0  0.50533  0.46879  0.35888  1.0000
  H   H46       1.0  0.27295  0.75127  0.25090  1.0000
  H   H47       1.0  0.29259  0.27540  0.31217  1.0000
  H   H48       1.0  0.71587  0.63093  0.28450  1.0000
  H   H49       1.0  0.72924  0.40293  0.18397  1.0000
  H   H50       1.0  0.22119  0.91771  0.25326  1.0000
  H   H51       1.0  0.24129  0.18065  0.02575  1.0000
  H   H52       1.0  0.77662  0.21979  0.12504  1.0000
  H   H53       1.0  0.76992  0.76395  0.19530  1.0000
  H   H54       1.0  0.04447  0.88792  0.26318  1.0000
  H   H55       1.0  0.07400  0.86876  0.34203  1.0000
  H   H56       1.0  0.10935  0.89085  0.47424  1.0000
  H   H57       1.0  0.14486  0.03130  0.21970  1.0000
  H   H58       1.0  0.00445  0.97558  0.34186  1.0000
  H   H59       1.0  0.01565  0.92524  0.30150  1.0000
  H   H60       1.0  0.03485  0.89480  0.10103  1.0000
  H   H61       1.0  0.01886  0.94245  0.14072  1.0000
  H   H62       1.0  0.91593  0.04330  0.16067  1.0000
  H   H63       1.0  0.88223  0.09142  0.31090  1.0000
  H   H64       1.0  0.85459  0.06301  0.50921  1.0000
  H   H65       1.0  0.88342  0.99510  0.39440  1.0000
  H   H66       1.0  0.07659  0.17179  0.15361  1.0000
  H   H67       1.0  0.04141  0.14831  0.19757  1.0000
  H   H68       1.0  0.11841  0.15628  0.07010  1.0000
  H   H69       1.0  0.15623  0.02336  0.39227  1.0000
  H   H70       1.0  0.11919  0.99455  0.40904  1.0000
  H   H71       1.0  0.02395  0.12685  0.30229  1.0000
  H   H72       1.0  0.01157  0.11330  0.17261  1.0000
  H   H73       1.0  0.93688  0.85214  0.27494  1.0000
  H   H74       1.0  0.96855  0.90770  0.31794  1.0000
  H   H75       1.0  0.89355  0.82623  0.23458  1.0000
  H   H76       1.0  0.84151  0.86641  0.11456  1.0000
  H   H77       1.0  0.87323  0.91706  0.14332  1.0000
  H   H78       1.0  0.98313  0.09727  0.26646  1.0000
  H   H79       1.0  0.00286  0.04902  0.20581  1.0000
  H   H80       1.0  0.94534  0.97580  0.04406  1.0000
  H   H81       1.0  0.97608  0.84404  0.92847  1.0000
  H   H82       1.0  0.00276  0.86951  0.92840  1.0000
  H   H83       1.0  0.97620  0.93553  0.48701  1.0000
  H   H84       1.0  0.98415  0.96452  0.64239  1.0000
  H   H85       1.0  0.42854  0.39715  0.54364  1.0000
  H   H86       1.0  0.43467  0.40927  0.67783  1.0000
  H   H87       1.0  0.47435  0.38153  0.49405  1.0000
  H   H88       1.0  0.45910  0.34073  0.48595  1.0000
  H   H89       1.0  0.46358  0.63469  0.73904  1.0000
  H   H90       1.0  0.45782  0.58251  0.70179  1.0000
  H   H91       1.0  0.47850  0.57902  0.51246  1.0000
  H   H92       1.0  0.44631  0.57508  0.52741  1.0000
  H   H93       1.0  0.98964  0.05623  0.98266  1.0000
  H   H94       1.0  0.96856  0.09149  0.59944  1.0000
  H   H95       1.0  0.94560  0.04057  0.90856  1.0000
  H   H96       1.0  0.93845  0.02378  0.98338  1.0000
  H   H97       1.0  0.11235  0.05550  0.66203  1.0000
  H   H98       1.0  0.55125  0.35767  0.68657  1.0000
  H   H99       1.0  0.58555  0.34107  0.75673  1.0000
  H   H100      1.0  0.62159  0.36941  0.89411  1.0000
  H   H101      1.0  0.64984  0.50580  0.63427  1.0000
  H   H102      1.0  0.61643  0.52927  0.58204  1.0000
  H   H103      1.0  0.56639  0.65436  0.64729  1.0000
  H   H104      1.0  0.53609  0.62030  0.68483  1.0000
  H   H105      1.0  0.60425  0.64533  0.54444  1.0000
  H   H106      1.0  0.64791  0.51484  0.80554  1.0000
  H   H107      1.0  0.61706  0.47800  0.82761  1.0000
  H   H108      1.0  0.43821  0.50680  0.64581  1.0000
  H   H109      1.0  0.40785  0.57413  0.76382  1.0000
  H   H110      1.0  0.37639  0.62448  0.92629  1.0000
  H   H111      1.0  0.36192  0.61508  0.67595  1.0000
  H   H112      1.0  0.39222  0.54944  0.56443  1.0000
  H   H113      1.0  0.45066  0.39773  0.90641  1.0000
  H   H114      1.0  0.47901  0.45605  0.94819  1.0000
  H   H115      1.0  0.40896  0.36884  0.87656  1.0000
  H   H116      1.0  0.34854  0.41625  0.80884  1.0000
  H   H117      1.0  0.37686  0.46713  0.82437  1.0000
  H   H118      1.0  0.49327  0.53024  0.63196  1.0000
  H   H119      1.0  0.49423  0.58081  0.80151  1.0000
  H   H120      1.0  0.53432  0.54527  0.73903  1.0000
  H   H121      1.0  0.53808  0.59882  0.78013  1.0000
  H   H122      1.0  0.49478  0.45636  0.72437  1.0000
  H   H123      1.0  0.51354  0.40578  0.59761  1.0000
  H   H124      1.0  0.51822  0.39378  0.74184  1.0000
  H   H125      1.0  0.51109  0.45690  0.87024  1.0000
  H   H126      1.0  0.27449  0.75288  0.75173  1.0000
  H   H127      1.0  0.29447  0.27124  0.80727  1.0000
  H   H128      1.0  0.71624  0.63114  0.77345  1.0000
  H   H129      1.0  0.72590  0.39450  0.67944  1.0000
  H   H130      1.0  0.21960  0.91991  0.75996  1.0000
  H   H131      1.0  0.24056  0.17953  0.51958  1.0000
  H   H132      1.0  0.77683  0.22027  0.64117  1.0000
  H   H133      1.0  0.77118  0.76896  0.69290  1.0000
  H   H134      1.0  0.04615  0.88885  0.75646  1.0000
  H   H135      1.0  0.07700  0.86696  0.82432  1.0000
  H   H136      1.0  0.11233  0.88836  0.95742  1.0000
  H   H137      1.0  0.14359  0.03186  0.72284  1.0000
  H   H138      1.0  0.00526  0.97470  0.82785  1.0000
  H   H139      1.0  0.01622  0.92600  0.79581  1.0000
  H   H140      1.0  0.03969  0.89568  0.60510  1.0000
  H   H141      1.0  0.02581  0.94315  0.63739  1.0000
  H   H142      1.0  0.91708  0.04872  0.66261  1.0000
  H   H143      1.0  0.88194  0.09245  0.80416  1.0000
  H   H144      1.0  0.85338  0.05697  0.98452  1.0000
  H   H145      1.0  0.88332  0.99094  0.87118  1.0000
  H   H146      1.0  0.07681  0.16845  0.64205  1.0000
  H   H147      1.0  0.04108  0.14554  0.68460  1.0000
  H   H148      1.0  0.11850  0.15216  0.55846  1.0000
  H   H149      1.0  0.15653  0.02734  0.90090  1.0000
  H   H150      1.0  0.11961  0.99758  0.91516  1.0000
  H   H151      1.0  0.02430  0.12786  0.79427  1.0000
  H   H152      1.0  0.01087  0.11223  0.66295  1.0000
  H   H153      1.0  0.93872  0.85318  0.76371  1.0000
  H   H154      1.0  0.96987  0.91208  0.81605  1.0000
  H   H155      1.0  0.89545  0.82695  0.72201  1.0000
  H   H156      1.0  0.84396  0.86398  0.59228  1.0000
  H   H157      1.0  0.87575  0.91409  0.61931  1.0000
  H   H158      1.0  0.98309  0.10187  0.76987  1.0000
  H   H159      1.0  0.00222  0.05387  0.71465  1.0000
  H   H160      1.0  0.94864  0.98544  0.55416  1.0000
  C   C1        1.0  0.59727  0.41250  0.39991  1.0000
  C   C2        1.0  0.59678  0.46015  0.45454  1.0000
  C   C3        1.0  0.57696  0.47281  0.42232  1.0000
  C   C4        1.0  0.55915  0.43764  0.33337  1.0000
  C   C5        1.0  0.56010  0.39011  0.27613  1.0000
  C   C6        1.0  0.57869  0.37804  0.30963  1.0000
  C   C7        1.0  0.61611  0.40098  0.43756  1.0000
  C   C8        1.0  0.63728  0.44120  0.02632  1.0000
  C   C9        1.0  0.63560  0.48724  0.07468  1.0000
  C   C10       1.0  0.61638  0.49744  0.03884  1.0000
  C   C11       1.0  0.57455  0.52264  0.48327  1.0000
  C   C12       1.0  0.59189  0.54164  0.46022  1.0000
  C   C13       1.0  0.58909  0.59007  0.52110  1.0000
  C   C14       1.0  0.56637  0.61175  0.06646  1.0000
  C   C15       1.0  0.55006  0.59333  0.09022  1.0000
  C   C16       1.0  0.55446  0.54753  0.03993  1.0000
  C   C17       1.0  0.60654  0.60862  0.49797  1.0000
  C   C18       1.0  0.62688  0.58166  0.42182  1.0000
  C   C19       1.0  0.62995  0.53447  0.36581  1.0000
  C   C20       1.0  0.61267  0.51451  0.38098  1.0000
  C   C21       1.0  0.39824  0.57123  0.39112  1.0000
  C   C22       1.0  0.40238  0.54802  0.42753  1.0000
  C   C23       1.0  0.41991  0.50940  0.35942  1.0000
  C   C24       1.0  0.43229  0.49495  0.25730  1.0000
  C   C25       1.0  0.42844  0.51884  0.22409  1.0000
  C   C26       1.0  0.41180  0.55596  0.28906  1.0000
  C   C27       1.0  0.38093  0.60914  0.45778  1.0000
  C   C28       1.0  0.36582  0.62260  0.05497  1.0000
  C   C29       1.0  0.37020  0.59931  0.09006  1.0000
  C   C30       1.0  0.38751  0.56298  0.02815  1.0000
  C   C31       1.0  0.42642  0.48531  0.39519  1.0000
  C   C32       1.0  0.40934  0.45353  0.37648  1.0000
  C   C33       1.0  0.41796  0.42288  0.38546  1.0000
  C   C34       1.0  0.44350  0.42284  0.40672  1.0000
  C   C35       1.0  0.45943  0.45515  0.43119  1.0000
  C   C36       1.0  0.45089  0.48757  0.42974  1.0000
  C   C37       1.0  0.40100  0.39348  0.37367  1.0000
  C   C38       1.0  0.37584  0.39315  0.35425  1.0000
  C   C39       1.0  0.36773  0.42049  0.33480  1.0000
  C   C40       1.0  0.38392  0.44915  0.34413  1.0000
  C   C41       1.0  0.50223  0.56489  0.19900  1.0000
  C   C42       1.0  0.53010  0.56009  0.19164  1.0000
  C   C43       1.0  0.50608  0.40536  0.15423  1.0000
  C   C44       1.0  0.51613  0.43553  0.28763  1.0000
  C   C45       1.0  0.29110  0.76562  0.26162  1.0000
  C   C46       1.0  0.29092  0.80895  0.30179  1.0000
  C   C47       1.0  0.31339  0.83293  0.32482  1.0000
  C   C48       1.0  0.31074  0.28089  0.35258  1.0000
  C   C49       1.0  0.31433  0.25751  0.38417  1.0000
  C   C50       1.0  0.33736  0.26073  0.43561  1.0000
  C   C51       1.0  0.69721  0.63807  0.27486  1.0000
  C   C52       1.0  0.69592  0.65590  0.22716  1.0000
  C   C53       1.0  0.67311  0.66972  0.21496  1.0000
  C   C54       1.0  0.71081  0.39420  0.19039  1.0000
  C   C55       1.0  0.71011  0.36943  0.21898  1.0000
  C   C56       1.0  0.68742  0.35614  0.23297  1.0000
  C   C57       1.0  0.20202  0.88459  0.28910  1.0000
  C   C58       1.0  0.20274  0.90778  0.25586  1.0000
  C   C59       1.0  0.17922  0.86973  0.29769  1.0000
  C   C60       1.0  0.23691  0.14575  0.33376  1.0000
  C   C61       1.0  0.22923  0.15467  0.43258  1.0000
  C   C62       1.0  0.22495  0.10839  0.21207  1.0000
  C   C63       1.0  0.79686  0.27630  0.17891  1.0000
  C   C64       1.0  0.79529  0.23196  0.13315  1.0000
  C   C65       1.0  0.82001  0.29704  0.19469  1.0000
  C   C66       1.0  0.78521  0.70213  0.13031  1.0000
  C   C67       1.0  0.78698  0.74345  0.16145  1.0000
  C   C68       1.0  0.80605  0.67233  0.09006  1.0000
  C   C69       1.0  0.09222  0.93907  0.47612  1.0000
  C   C70       1.0  0.09407  0.98645  0.02556  1.0000
  C   C71       1.0  0.07556  0.99736  0.48221  1.0000
  C   C72       1.0  0.05807  0.96198  0.38923  1.0000
  C   C73       1.0  0.05753  0.91555  0.33882  1.0000
  C   C74       1.0  0.07416  0.90459  0.38194  1.0000
  C   C75       1.0  0.11230  0.92534  0.00438  1.0000
  C   C76       1.0  0.13065  0.95790  0.09354  1.0000
  C   C77       1.0  0.13065  0.00539  0.14951  1.0000
  C   C78       1.0  0.11261  0.01962  0.11977  1.0000
  C   C79       1.0  0.01897  0.94826  0.28991  1.0000
  C   C80       1.0  0.01841  0.91802  0.14936  1.0000
  C   C81       1.0  0.89913  0.03155  0.26173  1.0000
  C   C82       1.0  0.89941  0.00264  0.28252  1.0000
  C   C83       1.0  0.91645  0.96368  0.21479  1.0000
  C   C84       1.0  0.93250  0.95431  0.12879  1.0000
  C   C85       1.0  0.93252  0.98335  0.11006  1.0000
  C   C86       1.0  0.91606  0.02098  0.17509  1.0000
  C   C87       1.0  0.88248  0.07061  0.33001  1.0000
  C   C88       1.0  0.86623  0.08208  0.41740  1.0000
  C   C89       1.0  0.86683  0.05368  0.43877  1.0000
  C   C90       1.0  0.88305  0.01573  0.37488  1.0000
  C   C91       1.0  0.07682  0.04718  0.03514  1.0000
  C   C92       1.0  0.09768  0.06169  0.01344  1.0000
  C   C93       1.0  0.09772  0.10725  0.05650  1.0000
  C   C94       1.0  0.07676  0.13730  0.12098  1.0000
  C   C95       1.0  0.05694  0.12389  0.14505  1.0000
  C   C96       1.0  0.05684  0.07889  0.10228  1.0000
  C   C97       1.0  0.11883  0.12178  0.03741  1.0000
  C   C98       1.0  0.14003  0.09003  0.47393  1.0000
  C   C99       1.0  0.13979  0.04570  0.43499  1.0000
  C   C100      1.0  0.11894  0.02958  0.44506  1.0000
  C   C101      1.0  0.99630  0.06985  0.19050  1.0000
  C   C102      1.0  0.01773  0.09700  0.20183  1.0000
  C   C103      1.0  0.92001  0.93520  0.23954  1.0000
  C   C104      1.0  0.90178  0.90283  0.21099  1.0000
  C   C105      1.0  0.90767  0.87429  0.23030  1.0000
  C   C106      1.0  0.93220  0.87530  0.26559  1.0000
  C   C107      1.0  0.94965  0.90612  0.29084  1.0000
  C   C108      1.0  0.94304  0.93818  0.28611  1.0000
  C   C109      1.0  0.88896  0.84574  0.21367  1.0000
  C   C110      1.0  0.86500  0.84391  0.17724  1.0000
  C   C111      1.0  0.85981  0.86978  0.15016  1.0000
  C   C112      1.0  0.87762  0.89789  0.16531  1.0000
  C   C113      1.0  0.97483  0.05520  0.02874  1.0000
  C   C114      1.0  0.95293  0.02247  0.43274  1.0000
  C   C115      1.0  0.98734  0.87731  0.98695  1.0000
  C   C116      1.0  0.97159  0.91757  0.02670  1.0000
  C   C117      1.0  0.44270  0.41043  0.11642  1.0000
  C   C118      1.0  0.46561  0.37916  0.05446  1.0000
  C   C119      1.0  0.46950  0.59653  0.17126  1.0000
  C   C120      1.0  0.46453  0.56686  0.03279  1.0000
  C   C121      1.0  0.60059  0.41423  0.89362  1.0000
  C   C122      1.0  0.59826  0.46152  0.94726  1.0000
  C   C123      1.0  0.57811  0.47085  0.90773  1.0000
  C   C124      1.0  0.56135  0.43342  0.81631  1.0000
  C   C125      1.0  0.56414  0.38641  0.76098  1.0000
  C   C126      1.0  0.58328  0.37713  0.79922  1.0000
  C   C127      1.0  0.61993  0.40547  0.93603  1.0000
  C   C128      1.0  0.63484  0.43394  0.52213  1.0000
  C   C129      1.0  0.63511  0.47985  0.56930  1.0000
  C   C130      1.0  0.61633  0.49310  0.53983  1.0000
  C   C131      1.0  0.57464  0.51946  0.96259  1.0000
  C   C132      1.0  0.59180  0.53864  0.93929  1.0000
  C   C133      1.0  0.58778  0.58558  0.99247  1.0000
  C   C134      1.0  0.56871  0.61795  0.60263  1.0000
  C   C135      1.0  0.55202  0.59942  0.62478  1.0000
  C   C136      1.0  0.55511  0.55193  0.56618  1.0000
  C   C137      1.0  0.60527  0.60461  0.97084  1.0000
  C   C138      1.0  0.62685  0.57998  0.90454  1.0000
  C   C139      1.0  0.63108  0.53450  0.85709  1.0000
  C   C140      1.0  0.61378  0.51372  0.86970  1.0000
  C   C141      1.0  0.39703  0.57003  0.88927  1.0000
  C   C142      1.0  0.40123  0.54632  0.92429  1.0000
  C   C143      1.0  0.41916  0.50832  0.85699  1.0000
  C   C144      1.0  0.43170  0.49465  0.75630  1.0000
  C   C145      1.0  0.42772  0.51883  0.72407  1.0000
  C   C146      1.0  0.41087  0.55567  0.78898  1.0000
  C   C147      1.0  0.37951  0.60767  0.95606  1.0000
  C   C148      1.0  0.36753  0.62509  0.55861  1.0000
  C   C149      1.0  0.37191  0.60246  0.59558  1.0000
  C   C150      1.0  0.38897  0.56573  0.53335  1.0000
  C   C151      1.0  0.42612  0.48428  0.89250  1.0000
  C   C152      1.0  0.40932  0.45208  0.87339  1.0000
  C   C153      1.0  0.41823  0.42174  0.88294  1.0000
  C   C154      1.0  0.44379  0.42227  0.90476  1.0000
  C   C155      1.0  0.45950  0.45454  0.92813  1.0000
  C   C156      1.0  0.45075  0.48668  0.92606  1.0000
  C   C157      1.0  0.40157  0.39183  0.87045  1.0000
  C   C158      1.0  0.37639  0.39075  0.84997  1.0000
  C   C159      1.0  0.36802  0.41765  0.82955  1.0000
  C   C160      1.0  0.38393  0.44676  0.83944  1.0000
  C   C161      1.0  0.50135  0.56666  0.71288  1.0000
  C   C162      1.0  0.52923  0.56276  0.71177  1.0000
  C   C163      1.0  0.50224  0.42159  0.67939  1.0000
  C   C164      1.0  0.51815  0.42818  0.77281  1.0000
  C   C165      1.0  0.29243  0.76615  0.75579  1.0000
  C   C166      1.0  0.29189  0.80797  0.78881  1.0000
  C   C167      1.0  0.31404  0.83032  0.80156  1.0000
  C   C168      1.0  0.31263  0.27729  0.84836  1.0000
  C   C169      1.0  0.31626  0.25491  0.88279  1.0000
  C   C170      1.0  0.33912  0.25872  0.93616  1.0000
  C   C171      1.0  0.69768  0.63941  0.76632  1.0000
  C   C172      1.0  0.69668  0.65963  0.72486  1.0000
  C   C173      1.0  0.67404  0.67576  0.71888  1.0000
  C   C174      1.0  0.70752  0.38594  0.68683  1.0000
  C   C175      1.0  0.70723  0.36262  0.71965  1.0000
  C   C176      1.0  0.68475  0.34854  0.73267  1.0000
  C   C177      1.0  0.20143  0.88417  0.78998  1.0000
  C   C178      1.0  0.20140  0.90888  0.76113  1.0000
  C   C179      1.0  0.17908  0.86770  0.79660  1.0000
  C   C180      1.0  0.23711  0.14826  0.84153  1.0000
  C   C181      1.0  0.22955  0.15701  0.94022  1.0000
  C   C182      1.0  0.22462  0.11179  0.72107  1.0000
  C   C183      1.0  0.79606  0.27729  0.69377  1.0000
  C   C184      1.0  0.79525  0.23298  0.64829  1.0000
  C   C185      1.0  0.81885  0.29878  0.70888  1.0000
  C   C186      1.0  0.78599  0.70739  0.63097  1.0000
  C   C187      1.0  0.78806  0.74797  0.65891  1.0000
  C   C188      1.0  0.80660  0.67697  0.58952  1.0000
  C   C189      1.0  0.09419  0.93822  0.96745  1.0000
  C   C190      1.0  0.09293  0.98609  0.52712  1.0000
  C   C191      1.0  0.07631  0.99899  0.98517  1.0000
  C   C192      1.0  0.05892  0.96382  0.89058  1.0000
  C   C193      1.0  0.05914  0.91620  0.83320  1.0000
  C   C194      1.0  0.07643  0.90385  0.87079  1.0000
  C   C195      1.0  0.10991  0.92714  0.51681  1.0000
  C   C196      1.0  0.12859  0.95946  0.60331  1.0000
  C   C197      1.0  0.12923  0.00600  0.65377  1.0000
  C   C198      1.0  0.11168  0.01933  0.61972  1.0000
  C   C199      1.0  0.02043  0.94898  0.78479  1.0000
  C   C200      1.0  0.02316  0.91860  0.64483  1.0000
  C   C201      1.0  0.89972  0.03280  0.75316  1.0000
  C   C202      1.0  0.90018  0.00240  0.76922  1.0000
  C   C203      1.0  0.91829  0.96517  0.70430  1.0000
  C   C204      1.0  0.93533  0.95942  0.62689  1.0000
  C   C205      1.0  0.93501  0.98989  0.61274  1.0000
  C   C206      1.0  0.91742  0.02540  0.67381  1.0000
  C   C207      1.0  0.88230  0.07056  0.81990  1.0000
  C   C208      1.0  0.86549  0.07977  0.90238  1.0000
  C   C209      1.0  0.86610  0.04971  0.91848  1.0000
  C   C210      1.0  0.88298  0.01273  0.85525  1.0000
  C   C211      1.0  0.07626  0.04470  0.52781  1.0000
  C   C212      1.0  0.09733  0.05852  0.50503  1.0000
  C   C213      1.0  0.09763  0.10375  0.54646  1.0000
  C   C214      1.0  0.07674  0.13408  0.61001  1.0000
  C   C215      1.0  0.05664  0.12111  0.63378  1.0000
  C   C216      1.0  0.05624  0.07652  0.59289  1.0000
  C   C217      1.0  0.11882  0.11779  0.52647  1.0000
  C   C218      1.0  0.14011  0.09417  0.98454  1.0000
  C   C219      1.0  0.14006  0.04956  0.94416  1.0000
  C   C220      1.0  0.11929  0.03290  0.95280  1.0000
  C   C221      1.0  0.99576  0.07283  0.69355  1.0000
  C   C222      1.0  0.01731  0.09723  0.69546  1.0000
  C   C223      1.0  0.92185  0.93556  0.72563  1.0000
  C   C224      1.0  0.90393  0.90201  0.69340  1.0000
  C   C225      1.0  0.90974  0.87400  0.71455  1.0000
  C   C226      1.0  0.93408  0.87623  0.75392  1.0000
  C   C227      1.0  0.95117  0.90842  0.78345  1.0000
  C   C228      1.0  0.94442  0.94000  0.77749  1.0000
  C   C229      1.0  0.89099  0.84554  0.69829  1.0000
  C   C230      1.0  0.86708  0.84328  0.66061  1.0000
  C   C231      1.0  0.86216  0.86786  0.62947  1.0000
  C   C232      1.0  0.88000  0.89577  0.64393  1.0000
  C   C233      1.0  0.97463  0.05329  0.52336  1.0000
  C   C234      1.0  0.95319  0.02476  0.93733  1.0000
  C   C235      1.0  0.99224  0.88716  0.48738  1.0000
  C   C236      1.0  0.97662  0.93100  0.54828  1.0000
  C   C237      1.0  0.44259  0.41047  0.61574  1.0000
  C   C238      1.0  0.46532  0.37868  0.55137  1.0000
  C   C239      1.0  0.46936  0.59698  0.67775  1.0000
  C   C240      1.0  0.46491  0.56814  0.53958  1.0000
  N   N1        1.0  0.33124  0.85423  0.34561  1.0000
  N   N2        1.0  0.35595  0.26239  0.47806  1.0000
  N   N3        1.0  0.66953  0.34380  0.24518  1.0000
  N   N4        1.0  0.65496  0.68221  0.20432  1.0000
  N   N5        1.0  0.16102  0.85656  0.30541  1.0000
  N   N6        1.0  0.21688  0.07549  0.10895  1.0000
  N   N7        1.0  0.83852  0.31564  0.20937  1.0000
  N   N8        1.0  0.82290  0.65078  0.55512  1.0000
  N   N9        1.0  0.33153  0.85044  0.81389  1.0000
  N   N10       1.0  0.35753  0.26067  0.98012  1.0000
  N   N11       1.0  0.66697  0.33559  0.74362  1.0000
  N   N12       1.0  0.65598  0.69027  0.71428  1.0000
  N   N13       1.0  0.16126  0.85308  0.80219  1.0000
  N   N14       1.0  0.21616  0.07948  0.61856  1.0000
  N   N15       1.0  0.83708  0.31781  0.72281  1.0000
  N   N16       1.0  0.82259  0.64681  0.05744  1.0000
  O   O1        1.0  0.45003  0.45932  0.18722  1.0000
  O   O2        1.0  0.49520  0.59843  0.19774  1.0000
  O   O3        1.0  0.53849  0.52838  0.06264  1.0000
  O   O4        1.0  0.46900  0.51661  0.45141  1.0000
  O   O5        1.0  0.48146  0.39072  0.14827  1.0000
  O   O6        1.0  0.54125  0.45024  0.29883  1.0000
  O   O7        1.0  0.04234  0.97373  0.34588  1.0000
  O   O8        1.0  0.94779  0.91530  0.06304  1.0000
  O   O9        1.0  0.03749  0.06385  0.12339  1.0000
  O   O10       1.0  0.96069  0.97243  0.32921  1.0000
  O   O11       1.0  0.99633  0.88877  0.09349  1.0000
  O   O12       1.0  0.98380  0.03529  0.06933  1.0000
  O   O13       1.0  0.44977  0.45956  0.68758  1.0000
  O   O14       1.0  0.49497  0.59870  0.70570  1.0000
  O   O15       1.0  0.53867  0.53210  0.58511  1.0000
  O   O16       1.0  0.46883  0.51547  0.94626  1.0000
  O   O17       1.0  0.48255  0.38859  0.63851  1.0000
  O   O18       1.0  0.54276  0.44218  0.77402  1.0000
  O   O19       1.0  0.04261  0.97743  0.85378  1.0000
  O   O20       1.0  0.95198  0.92238  0.56344  1.0000
  O   O21       1.0  0.03642  0.06244  0.61485  1.0000
  O   O22       1.0  0.96150  0.97585  0.82632  1.0000
  O   O23       1.0  0.00144  0.88854  0.57646  1.0000
  O   O24       1.0  0.98254  0.03692  0.57461  1.0000
  C   C241      1.0  0.35106  0.71302  0.15470  1.0000
  C   C242      1.0  0.34968  0.67292  0.13179  1.0000
  C  Sn1       1.0  0.32757  0.66140  0.15064  1.0000
  C  Sn2       1.0  0.30647  0.69064  0.19318  1.0000
  C   C243      1.0  0.30804  0.73066  0.21574  1.0000
  C   C244      1.0  0.33026  0.74186  0.19662  1.0000
  H   H161      1.0  0.36824  0.72167  0.13984  1.0000
  O  Te1       1.0  0.32651  0.62122  0.12734  1.0000
  O  Te2       1.0  0.28414  0.67994  0.21274  1.0000
  H   H162      1.0  0.33131  0.77289  0.21428  1.0000
  Mg  Mg1       1.0  0.29192  0.62141  0.16793  1.0000
  C   C245      1.0  0.33071  0.33767  0.27385  1.0000
  C   C246      1.0  0.35244  0.36352  0.34316  1.0000
  C  Sn3       1.0  0.36244  0.36264  0.42446  1.0000
  C  Sn4       1.0  0.35042  0.33532  0.43636  1.0000
  C   C247      1.0  0.32869  0.30956  0.36654  1.0000
  C   C248      1.0  0.31884  0.31071  0.28549  1.0000
  H   H163      1.0  0.32309  0.33854  0.21108  1.0000
  O  Te3       1.0  0.38416  0.38869  0.49305  1.0000
  O  Te4       1.0  0.36001  0.33379  0.51689  1.0000
  H   H164      1.0  0.30202  0.29067  0.23177  1.0000
  Mg  Mg2       1.0  0.39004  0.37531  0.59050  1.0000
  C   C249      1.0  0.68723  0.44904  0.11010  1.0000
  C   C250      1.0  0.66232  0.43550  0.07684  1.0000
  C  Sn5       1.0  0.65103  0.40906  0.09119  1.0000
  C  Sn6       1.0  0.66498  0.39600  0.13980  1.0000
  C   C251      1.0  0.68988  0.40975  0.17288  1.0000
  C   C252      1.0  0.70099  0.43619  0.15810  1.0000
  H   H165      1.0  0.69582  0.46953  0.09874  1.0000
  O  Te5       1.0  0.62614  0.39580  0.05745  1.0000
  O  Te6       1.0  0.65415  0.36959  0.15515  1.0000
  H   H166      1.0  0.72027  0.44670  0.18394  1.0000
  Mg  Mg3       1.0  0.61966  0.35994  0.09573  1.0000
  C   C253      1.0  0.68567  0.60066  0.36489  1.0000
  C   C254      1.0  0.68100  0.61982  0.32048  1.0000
  C  Sn7       1.0  0.65688  0.63085  0.31638  1.0000
  C  Sn8       1.0  0.63710  0.62252  0.35762  1.0000
  C   C255      1.0  0.64196  0.60338  0.40198  1.0000
  C   C256      1.0  0.66617  0.59246  0.40563  1.0000
  H   H167      1.0  0.70440  0.59224  0.36779  1.0000
  O  Te7       1.0  0.65254  0.64995  0.27169  1.0000
  O  Te8       1.0  0.61281  0.63324  0.35459  1.0000
  H   H168      1.0  0.66978  0.57765  0.44010  1.0000
  Mg  Mg4       1.0  0.61626  0.65868  0.28574  1.0000
  C   C257      1.0  0.23745  0.82026  0.32069  1.0000
  C   C258      1.0  0.26229  0.82768  0.31470  1.0000
  C  Sn9       1.0  0.26887  0.86055  0.31406  1.0000
  C  Sn10      1.0  0.25020  0.88643  0.31956  1.0000
  C   C259      1.0  0.22541  0.87877  0.32562  1.0000
  C   C260      1.0  0.21902  0.84578  0.32617  1.0000
  H   H169      1.0  0.23250  0.79475  0.32118  1.0000
  O  Te9       1.0  0.29378  0.86751  0.30799  1.0000
  O  Te10      1.0  0.25627  0.91951  0.31911  1.0000
  H   H170      1.0  0.19979  0.84007  0.33089  1.0000
  Mg  Mg5       1.0  0.29279  0.91646  0.30977  1.0000
  C   C261      1.0  0.74786  0.64110  0.16493  1.0000
  C   C262      1.0  0.72388  0.65862  0.18838  1.0000
  C  Sn11      1.0  0.71825  0.69009  0.18177  1.0000
  C  Sn12      1.0  0.73702  0.70421  0.15106  1.0000
  C   C263      1.0  0.76095  0.68646  0.12767  1.0000
  C   C264      1.0  0.76638  0.65500  0.13457  1.0000
  H   H171      1.0  0.75207  0.61674  0.17020  1.0000
  O  Te11      1.0  0.69419  0.70726  0.20553  1.0000
  O  Te12      1.0  0.73189  0.73561  0.14377  1.0000
  H   H172      1.0  0.78495  0.64142  0.11633  1.0000
  Mg  Mg6       1.0  0.69631  0.74930  0.18412  1.0000
  C   C265      1.0  0.74445  0.29783  0.22833  1.0000
  C   C266      1.0  0.76915  0.30065  0.20883  1.0000
  C  Sn13      1.0  0.77632  0.33265  0.20588  1.0000
  C  Sn14      1.0  0.75839  0.36234  0.22284  1.0000
  C   C267      1.0  0.73373  0.35927  0.24238  1.0000
  C   C268      1.0  0.72675  0.32712  0.24511  1.0000
  H   H173      1.0  0.73905  0.27298  0.23052  1.0000
  O  Te13      1.0  0.80107  0.33500  0.18624  1.0000
  O  Te14      1.0  0.76505  0.39464  0.22037  1.0000
  H   H174      1.0  0.70763  0.32496  0.26030  1.0000
  Mg  Mg7       1.0  0.80107  0.38468  0.19060  1.0000
  C   C269      1.0  0.26849  0.20194  0.27017  1.0000
  C   C270      1.0  0.28962  0.22438  0.34841  1.0000
  C  Sn15      1.0  0.29565  0.21837  0.42349  1.0000
  C  Sn16      1.0  0.28021  0.18933  0.41995  1.0000
  C   C271      1.0  0.25912  0.16701  0.34130  1.0000
  C   C272      1.0  0.25325  0.17328  0.26659  1.0000
  H   H175      1.0  0.26395  0.20677  0.21231  1.0000
  O  Te15      1.0  0.31683  0.24106  0.50115  1.0000
  O  Te16      1.0  0.28581  0.18270  0.49398  1.0000
  H   H176      1.0  0.23690  0.15587  0.20597  1.0000
  Mg  Mg8       1.0  0.31667  0.22110  0.58457  1.0000
  C   C273      1.0  0.18977  0.95154  0.18333  1.0000
  C   C274      1.0  0.18569  0.92885  0.21824  1.0000
  C  Sn17      1.0  0.16215  0.91146  0.20520  1.0000
  C  Sn18      1.0  0.14236  0.91693  0.15626  1.0000
  C   C275      1.0  0.14663  0.93965  0.12153  1.0000
  C   C276      1.0  0.17026  0.95693  0.13500  1.0000
  H   H177      1.0  0.20806  0.96489  0.19369  1.0000
  O  Te17      1.0  0.15840  0.88889  0.24058  1.0000
  O  Te18      1.0  0.11864  0.89986  0.14220  1.0000
  H   H178      1.0  0.17341  0.97447  0.10789  1.0000
  Mg  Mg9       1.0  0.12277  0.87166  0.20364  1.0000
  C   C277      1.0  0.85439  0.17684  0.53547  1.0000
  C   C278      1.0  0.85097  0.13407  0.49984  1.0000
  C  Sn19      1.0  0.82798  0.12181  0.51032  1.0000
  C  Sn20      1.0  0.80760  0.15302  0.55735  1.0000
  C   C279      1.0  0.81121  0.19572  0.59266  1.0000
  C   C280      1.0  0.83430  0.20764  0.58182  1.0000
  H   H179      1.0  0.87225  0.18606  0.52703  1.0000
  O  Te19      1.0  0.82535  0.07894  0.47434  1.0000
  O  Te20      1.0  0.78442  0.14164  0.56876  1.0000
  H   H180      1.0  0.83658  0.24075  0.60934  1.0000
  Mg  Mg10      1.0  0.79008  0.07919  0.50749  1.0000
  C   C281      1.0  0.85419  0.17514  0.02533  1.0000
  C   C282      1.0  0.85365  0.41397  0.98773  1.0000
  C  Sn21      1.0  0.83030  0.40164  0.99506  1.0000
  C  Sn22      1.0  0.80716  0.15118  0.04087  1.0000
  C   C283      1.0  0.81085  0.19419  0.07817  1.0000
  C   C284      1.0  0.83430  0.20618  0.07049  1.0000
  H   H181      1.0  0.87233  0.18441  0.01932  1.0000
  O  Te21      1.0  0.82713  0.35846  0.95715  1.0000
  O  Te22      1.0  0.78363  0.13973  0.04914  1.0000
  H   H182      1.0  0.83700  0.23953  0.09952  1.0000
  Mg  Mg11      1.0  0.79155  0.35874  0.98617  1.0000
  C   C285      1.0  0.20373  0.11245  0.49408  1.0000
  C   C286      1.0  0.20757  0.12976  0.44424  1.0000
  C  Sn23      1.0  0.18725  0.13657  0.40288  1.0000
  C  Sn24      1.0  0.16311  0.12582  0.41174  1.0000
  C   C287      1.0  0.15945  0.10855  0.46182  1.0000
  C   C288      1.0  0.17992  0.10186  0.50289  1.0000
  H   H183      1.0  0.21956  0.10729  0.52592  1.0000
  O  Te23      1.0  0.19097  0.15388  0.35329  1.0000
  O  Te24      1.0  0.14247  0.13231  0.37114  1.0000
  H   H184      1.0  0.17729  0.08849  0.54155  1.0000
  Mg  Mg12      1.0  0.15701  0.15673  0.31048  1.0000
  C   C289      1.0  0.81424  0.83269  0.20578  1.0000
  C   C290      1.0  0.83954  0.82335  0.18391  1.0000
  C  Sn25      1.0  0.84920  0.78181  0.14216  1.0000
  C  Sn26      1.0  0.83319  0.74906  0.12198  1.0000
  C   C291      1.0  0.80791  0.75871  0.14405  1.0000
  C   C292      1.0  0.79844  0.80040  0.18586  1.0000
  H   H185      1.0  0.80691  0.86493  0.23806  1.0000
  O  Te25      1.0  0.87452  0.77304  0.12081  1.0000
  O  Te26      1.0  0.84236  0.70726  0.08023  1.0000
  H   H186      1.0  0.77885  0.80760  0.20271  1.0000
  Mg  Mg13      1.0  0.87822  0.71115  0.06437  1.0000
  C   C293      1.0  0.35243  0.71368  0.64910  1.0000
  C   C294      1.0  0.35144  0.67514  0.63268  1.0000
  C  Sn27      1.0  0.32956  0.66459  0.65559  1.0000
  C  Sn28      1.0  0.30832  0.69321  0.69565  1.0000
  C   C295      1.0  0.30950  0.73167  0.71171  1.0000
  C   C296      1.0  0.33149  0.74192  0.68855  1.0000
  H   H187      1.0  0.36944  0.72160  0.63112  1.0000
  O  Te27      1.0  0.32889  0.62596  0.63877  1.0000
  O  Te28      1.0  0.28622  0.68344  0.71917  1.0000
  H   H188      1.0  0.33225  0.77174  0.70119  1.0000
  Mg  Mg14      1.0  0.29450  0.62696  0.68284  1.0000
  C   C297      1.0  0.32284  0.32225  0.77681  1.0000
  C   C298      1.0  0.32680  0.30884  0.83632  1.0000
  C  Sn29      1.0  0.34772  0.32571  0.91363  1.0000
  C  Sn30      1.0  0.36496  0.35657  0.93156  1.0000
  C   C299      1.0  0.36081  0.36980  0.87168  1.0000
  C   C300      1.0  0.33982  0.35271  0.79448  1.0000
  H   H189      1.0  0.30659  0.30905  0.71713  1.0000
  O  Te29      1.0  0.35141  0.31194  0.97233  1.0000
  O  Te30      1.0  0.38306  0.09203  0.00837  1.0000
  H   H190      1.0  0.33674  0.36312  0.74849  1.0000
  Mg  Mg15      1.0  0.37995  0.06309  0.06803  1.0000
  C   C301      1.0  0.64727  0.39253  0.60527  1.0000
  C   C302      1.0  0.65078  0.41829  0.57896  1.0000
  C  Sn31      1.0  0.67447  0.43341  0.58455  1.0000
  C  Sn32      1.0  0.69499  0.42247  0.61708  1.0000
  C   C303      1.0  0.69130  0.39665  0.64314  1.0000
  C   C304      1.0  0.66751  0.38170  0.63731  1.0000
  H   H191      1.0  0.62887  0.38094  0.60070  1.0000
  O  Te31      1.0  0.67764  0.45914  0.55802  1.0000
  O  Te32      1.0  0.71887  0.43714  0.62331  1.0000
  H   H192      1.0  0.66481  0.36173  0.65761  1.0000
  Mg  Mg16      1.0  0.71376  0.47131  0.57907  1.0000
  C   C305      1.0  0.63769  0.62533  0.83043  1.0000
  C   C306      1.0  0.64208  0.60211  0.86379  1.0000
  C  Sn33      1.0  0.66626  0.59330  0.87440  1.0000
  C  Sn34      1.0  0.68639  0.60807  0.85117  1.0000
  C   C307      1.0  0.68180  0.63130  0.81794  1.0000
  C   C308      1.0  0.65753  0.63992  0.80755  1.0000
  H   H193      1.0  0.61892  0.63202  0.82245  1.0000
  O  Te33      1.0  0.67032  0.57005  0.90777  1.0000
  O  Te34      1.0  0.71074  0.59973  0.86115  1.0000
  H   H194      1.0  0.65414  0.65792  0.78180  1.0000
  Mg  Mg17      1.0  0.70682  0.56677  0.90929  1.0000
  C   C309      1.0  0.25491  0.88457  0.80696  1.0000
  C   C310      1.0  0.23024  0.87371  0.80421  1.0000
  C  Sn35      1.0  0.22437  0.84251  0.81141  1.0000
  C  Sn36      1.0  0.24360  0.82186  0.82158  1.0000
  C   C311      1.0  0.26823  0.83298  0.82434  1.0000
  C   C312      1.0  0.27389  0.86424  0.81703  1.0000
  H   H195      1.0  0.25929  0.90877  0.80137  1.0000
  O  Te35      1.0  0.19962  0.83203  0.80849  1.0000
  O  Te36      1.0  0.23826  0.79058  0.82897  1.0000
  H   H196      1.0  0.29299  0.87266  0.81924  1.0000
  Mg  Mg18      1.0  0.20169  0.78734  0.82127  1.0000
  C   C313      1.0  0.72127  0.70634  0.67395  1.0000
  C   C314      1.0  0.71812  0.67377  0.67873  1.0000
  C  Sn37      1.0  0.73850  0.65045  0.66984  1.0000
  C  Sn38      1.0  0.76248  0.65998  0.65594  1.0000
  C   C315      1.0  0.76544  0.69264  0.65135  1.0000
  C   C316      1.0  0.74491  0.71578  0.66029  1.0000
  H   H197      1.0  0.70539  0.72426  0.68094  1.0000
  O  Te37      1.0  0.73502  0.61800  0.67474  1.0000
  O  Te38      1.0  0.78317  0.63718  0.64688  1.0000
  H   H198      1.0  0.74737  0.74101  0.65667  1.0000
  Mg  Mg19      1.0  0.76896  0.59590  0.65839  1.0000
  C   C317      1.0  0.76070  0.36023  0.73155  1.0000
  C   C318      1.0  0.73587  0.35096  0.73192  1.0000
  C  Sn39      1.0  0.72949  0.31872  0.73503  1.0000
  C  Sn40      1.0  0.74837  0.29540  0.73786  1.0000
  C   C319      1.0  0.77315  0.30494  0.73755  1.0000
  C   C320      1.0  0.77932  0.33725  0.73439  1.0000
  H   H199      1.0  0.76548  0.38524  0.72918  1.0000
  O  Te39      1.0  0.70460  0.30986  0.73531  1.0000
  O  Te40      1.0  0.74251  0.26303  0.74104  1.0000
  H   H200      1.0  0.79855  0.34445  0.73419  1.0000
  Mg  Mg20      1.0  0.70592  0.26279  0.74013  1.0000
  C   C321      1.0  0.27063  0.19770  0.76430  1.0000
  C   C322      1.0  0.29116  0.22180  0.84666  1.0000
  C  Sn41      1.0  0.29589  0.21938  0.93018  1.0000
  C  Sn42      1.0  0.27973  0.19229  0.93102  1.0000
  C   C323      1.0  0.25925  0.16828  0.84820  1.0000
  C   C324      1.0  0.25469  0.17096  0.76504  1.0000
  H   H201      1.0  0.26757  0.19974  0.69991  1.0000
  O  Te41      1.0  0.31352  0.96176  0.01186  1.0000
  O  Te42      1.0  0.28106  0.90732  0.01349  1.0000
  H   H202      1.0  0.23880  0.15227  0.70123  1.0000
  Mg  Mg21      1.0  0.31156  0.94675  0.10683  1.0000
  C   C325      1.0  0.14132  0.91292  0.67227  1.0000
  C   C326      1.0  0.14451  0.94123  0.65355  1.0000
  C  Sn43      1.0  0.16798  0.95865  0.66571  1.0000
  C  Sn44      1.0  0.18859  0.94746  0.69719  1.0000
  C   C327      1.0  0.18521  0.91909  0.71564  1.0000
  C   C328      1.0  0.16164  0.90186  0.70326  1.0000
  H   H203      1.0  0.12309  0.89956  0.66263  1.0000
  O  Te43      1.0  0.17084  0.98689  0.64673  1.0000
  O  Te44      1.0  0.21225  0.96440  0.70990  1.0000
  H   H204      1.0  0.15917  0.87992  0.71768  1.0000
  Mg  Mg22      1.0  0.20676  0.00156  0.67475  1.0000
  C   C329      1.0  0.16463  0.13515  0.91684  1.0000
  C   C330      1.0  0.16147  0.11224  0.95165  1.0000
  C  Sn45      1.0  0.18183  0.10382  0.98897  1.0000
  C  Sn46      1.0  0.20577  0.11866  0.99142  1.0000
  C   C331      1.0  0.20873  0.14159  0.95652  1.0000
  C   C332      1.0  0.18823  0.14982  0.91929  1.0000
  H   H205      1.0  0.14877  0.14155  0.88811  1.0000
  O  Te45      1.0  0.17539  0.79894  0.02340  1.0000
  O  Te46      1.0  0.22347  0.82878  0.02838  1.0000
  H   H206      1.0  0.19068  0.16759  0.89242  1.0000
  Mg  Mg23      1.0  0.20928  0.79612  0.06679  1.0000
  C   C333      1.0  0.80635  0.82249  0.69735  1.0000
  C   C334      1.0  0.80691  0.77838  0.65624  1.0000
  C  Sn47      1.0  0.82911  0.75344  0.61786  1.0000
  C  Sn48      1.0  0.85113  0.77311  0.62083  1.0000
  C   C335      1.0  0.85037  0.81728  0.66220  1.0000
  C   C336      1.0  0.82806  0.84193  0.70035  1.0000
  H   H207      1.0  0.78909  0.84157  0.72694  1.0000
  O  Te47      1.0  0.82934  0.70940  0.57701  1.0000
  O  Te48      1.0  0.87356  0.74895  0.58304  1.0000
  H   H208      1.0  0.82764  0.87609  0.73226  1.0000
  Mg  Mg24      1.0  0.86445  0.69007  0.53490  1.0000
