data_image0
_chemical_formula_structural       H208C312N16O24SnCSn2CSnTe4Mg2SnCSn2CSnTe4Mg2SnCSn2CSnTe4Mg2SnCSn2CSnTe4Mg2SnCSn2CSnTe4Mg2SnCSn2CSnTe4Mg2SnCSn2CSnTe4Mg2SnCSn2CSnTe4Mg2SnCSn2CSnTe4Mg2SnCSn2CSnTe4Mg2SnCSn2CSnTe4Mg2SnCSn2CSnTe4Mg2
_chemical_formula_sum              "H208 C336 N16 O24 Sn48 Te48 Mg24"
_cell_length_a       54.1166
_cell_length_b       40.865
_cell_length_c       15.582
_cell_angle_alpha    137.68
_cell_angle_beta     90.6145
_cell_angle_gamma    89.9653

_symmetry_space_group_name_H-M    'P1'
_space_group_IT_number       1

loop_
  _space_group_symop_operation_xyz
  'x, y, z'

loop_
  _atom_site_type_symbol
  _atom_site_label
  _atom_site_symmetry_multiplicity
  _atom_site_fract_x
  _atom_site_fract_y
  _atom_site_fract_z
  _atom_site_occupancy
  H   H1        1.0  0.98077  0.85410  0.41795  1.0000
  H   H2        1.0  0.00758  0.88392  0.43555  1.0000
  H   H3        1.0  0.96950  0.91255  0.94727  1.0000
  H   H4        1.0  0.98024  0.95336  0.10794  1.0000
  H   H5        1.0  0.42889  0.39677  0.04309  1.0000
  H   H6        1.0  0.43446  0.40957  0.17873  1.0000
  H   H7        1.0  0.47539  0.38428  0.00341  1.0000
  H   H8        1.0  0.45986  0.34065  0.98374  1.0000
  H   H9        1.0  0.46375  0.63414  0.23135  1.0000
  H   H10       1.0  0.45828  0.58290  0.19839  1.0000
  H   H11       1.0  0.47770  0.57756  0.00377  1.0000
  H   H12       1.0  0.44573  0.57334  0.02121  1.0000
  H   H13       1.0  0.98995  0.05105  0.47310  1.0000
  H   H14       1.0  0.96825  0.09272  0.11033  1.0000
  H   H15       1.0  0.94659  0.03584  0.39568  1.0000
  H   H16       1.0  0.93744  0.02473  0.48188  1.0000
  H   H17       1.0  0.11268  0.05656  0.16685  1.0000
  H   H18       1.0  0.54627  0.36324  0.20454  1.0000
  H   H19       1.0  0.57955  0.34161  0.26592  1.0000
  H   H20       1.0  0.61611  0.36495  0.39647  1.0000
  H   H21       1.0  0.64914  0.51551  0.14482  1.0000
  H   H22       1.0  0.61500  0.53353  0.08101  1.0000
  H   H23       1.0  0.56304  0.64693  0.10502  1.0000
  H   H24       1.0  0.53349  0.61284  0.14569  1.0000
  H   H25       1.0  0.60203  0.64024  0.01189  1.0000
  H   H26       1.0  0.64575  0.51307  0.30560  1.0000
  H   H27       1.0  0.61496  0.47762  0.33271  1.0000
  H   H28       1.0  0.43882  0.50628  0.14488  1.0000
  H   H29       1.0  0.40872  0.57399  0.26265  1.0000
  H   H30       1.0  0.37768  0.62520  0.42602  1.0000
  H   H31       1.0  0.36005  0.61128  0.16923  1.0000
  H   H32       1.0  0.39072  0.54627  0.05812  1.0000
  H   H33       1.0  0.45015  0.39794  0.40752  1.0000
  H   H34       1.0  0.47892  0.45647  0.45132  1.0000
  H   H35       1.0  0.40818  0.37023  0.37934  1.0000
  H   H36       1.0  0.34825  0.41985  0.31558  1.0000
  H   H37       1.0  0.37706  0.47009  0.33053  1.0000
  H   H38       1.0  0.49372  0.52896  0.11801  1.0000
  H   H39       1.0  0.49599  0.57812  0.28767  1.0000
  H   H40       1.0  0.53585  0.54317  0.21975  1.0000
  H   H41       1.0  0.53916  0.59589  0.25680  1.0000
  H   H42       1.0  0.50593  0.42764  0.13872  1.0000
  H   H43       1.0  0.51788  0.37361  0.08135  1.0000
  H   H44       1.0  0.51510  0.41482  0.30756  1.0000
  H   H45       1.0  0.50533  0.46879  0.35888  1.0000
  H   H46       1.0  0.31892  0.62762  0.13024  1.0000
  H   H47       1.0  0.28754  0.68946  0.21717  1.0000
  H   H48       1.0  0.34061  0.76796  0.21587  1.0000
  H   H49       1.0  0.37134  0.70584  0.12705  1.0000
  H   H50       1.0  0.35688  0.32495  0.98671  1.0000
  H   H51       1.0  0.38243  0.37382  0.98625  1.0000
  H   H52       1.0  0.63006  0.39417  0.08277  1.0000
  H   H53       1.0  0.66013  0.37436  0.15714  1.0000
  H   H54       1.0  0.71731  0.44653  0.15172  1.0000
  H   H55       1.0  0.68652  0.46784  0.08122  1.0000
  H   H56       1.0  0.67693  0.57398  0.41240  1.0000
  H   H57       1.0  0.70639  0.59928  0.34972  1.0000
  H   H58       1.0  0.64572  0.65131  0.29428  1.0000
  H   H59       1.0  0.61682  0.62779  0.36210  1.0000
  H   H60       1.0  0.27295  0.75127  0.25090  1.0000
  H   H61       1.0  0.29259  0.27540  0.31217  1.0000
  H   H62       1.0  0.71587  0.63093  0.28450  1.0000
  H   H63       1.0  0.72924  0.40293  0.18397  1.0000
  H   H64       1.0  0.28748  0.88121  0.32480  1.0000
  H   H65       1.0  0.25054  0.91398  0.32065  1.0000
  H   H66       1.0  0.20513  0.82563  0.31482  1.0000
  H   H67       1.0  0.24219  0.79341  0.32135  1.0000
  H   H68       1.0  0.69984  0.70824  0.18099  1.0000
  H   H69       1.0  0.73728  0.72767  0.13836  1.0000
  H   H70       1.0  0.77995  0.63875  0.13916  1.0000
  H   H71       1.0  0.74246  0.61806  0.17745  1.0000
  H   H72       1.0  0.22119  0.91771  0.25326  1.0000
  H   H73       1.0  0.24129  0.18065  0.02575  1.0000
  H   H74       1.0  0.77662  0.21979  0.12504  1.0000
  H   H75       1.0  0.76992  0.76395  0.19530  1.0000
  H   H76       1.0  0.04447  0.88792  0.26318  1.0000
  H   H77       1.0  0.07400  0.86876  0.34203  1.0000
  H   H78       1.0  0.10935  0.89085  0.47424  1.0000
  H   H79       1.0  0.14486  0.03130  0.21970  1.0000
  H   H80       1.0  0.00445  0.97558  0.34186  1.0000
  H   H81       1.0  0.01565  0.92524  0.30150  1.0000
  H   H82       1.0  0.03485  0.89480  0.10103  1.0000
  H   H83       1.0  0.01886  0.94245  0.14072  1.0000
  H   H84       1.0  0.91593  0.04330  0.16067  1.0000
  H   H85       1.0  0.88223  0.09142  0.31090  1.0000
  H   H86       1.0  0.85459  0.06301  0.50921  1.0000
  H   H87       1.0  0.88342  0.99510  0.39440  1.0000
  H   H88       1.0  0.07659  0.17179  0.15361  1.0000
  H   H89       1.0  0.04141  0.14831  0.19757  1.0000
  H   H90       1.0  0.11841  0.15628  0.07010  1.0000
  H   H91       1.0  0.15623  0.02336  0.39227  1.0000
  H   H92       1.0  0.11919  0.99455  0.40904  1.0000
  H   H93       1.0  0.02395  0.12685  0.30229  1.0000
  H   H94       1.0  0.01157  0.11330  0.17261  1.0000
  H   H95       1.0  0.18690  0.08787  0.03169  1.0000
  H   H96       1.0  0.93688  0.85214  0.27494  1.0000
  H   H97       1.0  0.96855  0.90770  0.31794  1.0000
  H   H98       1.0  0.89355  0.82623  0.23458  1.0000
  H   H99       1.0  0.84151  0.86641  0.11456  1.0000
  H   H100      1.0  0.87323  0.91706  0.14332  1.0000
  H   H101      1.0  0.81666  0.86805  0.23704  1.0000
  H   H102      1.0  0.78398  0.82399  0.22948  1.0000
  H   H103      1.0  0.83667  0.71483  0.09336  1.0000
  H   H104      1.0  0.86890  0.75867  0.10019  1.0000
  H   H105      1.0  0.98313  0.09727  0.26646  1.0000
  H   H106      1.0  0.00286  0.04902  0.20581  1.0000
  H   H107      1.0  0.94534  0.97580  0.04406  1.0000
  H   H108      1.0  0.97608  0.84404  0.92847  1.0000
  H   H109      1.0  0.00276  0.86951  0.92840  1.0000
  H   H110      1.0  0.97620  0.93553  0.48701  1.0000
  H   H111      1.0  0.98415  0.96452  0.64239  1.0000
  H   H112      1.0  0.42854  0.39715  0.54364  1.0000
  H   H113      1.0  0.43467  0.40927  0.67783  1.0000
  H   H114      1.0  0.47435  0.38153  0.49405  1.0000
  H   H115      1.0  0.45910  0.34073  0.48595  1.0000
  H   H116      1.0  0.46358  0.63469  0.73904  1.0000
  H   H117      1.0  0.45782  0.58251  0.70179  1.0000
  H   H118      1.0  0.47850  0.57902  0.51246  1.0000
  H   H119      1.0  0.44631  0.57508  0.52741  1.0000
  H   H120      1.0  0.98964  0.05623  0.98266  1.0000
  H   H121      1.0  0.96856  0.09149  0.59944  1.0000
  H   H122      1.0  0.94560  0.04057  0.90856  1.0000
  H   H123      1.0  0.93845  0.02378  0.98338  1.0000
  H   H124      1.0  0.11235  0.05550  0.66203  1.0000
  H   H125      1.0  0.55125  0.35767  0.68657  1.0000
  H   H126      1.0  0.58555  0.34107  0.75673  1.0000
  H   H127      1.0  0.62159  0.36941  0.89411  1.0000
  H   H128      1.0  0.64984  0.50580  0.63427  1.0000
  H   H129      1.0  0.61643  0.52927  0.58204  1.0000
  H   H130      1.0  0.56639  0.65436  0.64729  1.0000
  H   H131      1.0  0.53609  0.62030  0.68483  1.0000
  H   H132      1.0  0.60425  0.64533  0.54444  1.0000
  H   H133      1.0  0.64791  0.51484  0.80554  1.0000
  H   H134      1.0  0.61706  0.47800  0.82761  1.0000
  H   H135      1.0  0.43821  0.50680  0.64581  1.0000
  H   H136      1.0  0.40785  0.57413  0.76382  1.0000
  H   H137      1.0  0.37639  0.62448  0.92629  1.0000
  H   H138      1.0  0.36192  0.61508  0.67595  1.0000
  H   H139      1.0  0.39222  0.54944  0.56443  1.0000
  H   H140      1.0  0.45066  0.39773  0.90641  1.0000
  H   H141      1.0  0.47901  0.45605  0.94819  1.0000
  H   H142      1.0  0.40896  0.36884  0.87656  1.0000
  H   H143      1.0  0.34854  0.41625  0.80884  1.0000
  H   H144      1.0  0.37686  0.46713  0.82437  1.0000
  H   H145      1.0  0.49327  0.53024  0.63196  1.0000
  H   H146      1.0  0.49423  0.58081  0.80151  1.0000
  H   H147      1.0  0.53432  0.54527  0.73903  1.0000
  H   H148      1.0  0.53808  0.59882  0.78013  1.0000
  H   H149      1.0  0.49478  0.45636  0.72437  1.0000
  H   H150      1.0  0.51354  0.40578  0.59761  1.0000
  H   H151      1.0  0.51822  0.39378  0.74184  1.0000
  H   H152      1.0  0.51109  0.45690  0.87024  1.0000
  H   H153      1.0  0.33143  0.34747  0.72561  1.0000
  H   H154      1.0  0.30468  0.30075  0.73208  1.0000
  H   H155      1.0  0.67716  0.57790  0.91057  1.0000
  H   H156      1.0  0.70670  0.60357  0.84945  1.0000
  H   H157      1.0  0.64588  0.64718  0.77014  1.0000
  H   H158      1.0  0.61681  0.62237  0.83365  1.0000
  H   H159      1.0  0.27449  0.75288  0.75173  1.0000
  H   H160      1.0  0.29447  0.27124  0.80727  1.0000
  H   H161      1.0  0.71624  0.63114  0.77345  1.0000
  H   H162      1.0  0.72590  0.39450  0.67944  1.0000
  H   H163      1.0  0.28725  0.87695  0.80037  1.0000
  H   H164      1.0  0.24975  0.90961  0.80085  1.0000
  H   H165      1.0  0.20622  0.82903  0.82759  1.0000
  H   H166      1.0  0.24404  0.79646  0.82806  1.0000
  H   H167      1.0  0.70052  0.71285  0.68182  1.0000
  H   H168      1.0  0.73785  0.73358  0.64204  1.0000
  H   H169      1.0  0.78092  0.64477  0.64210  1.0000
  H   H170      1.0  0.74369  0.62315  0.67845  1.0000
  H   H171      1.0  0.31338  0.22970  0.00225  1.0000
  H   H172      1.0  0.28002  0.18442  0.98613  1.0000
  H   H173      1.0  0.24265  0.16509  0.70555  1.0000
  H   H174      1.0  0.27610  0.20943  0.71957  1.0000
  H   H175      1.0  0.21960  0.91991  0.75996  1.0000
  H   H176      1.0  0.24056  0.17953  0.51958  1.0000
  H   H177      1.0  0.77683  0.22027  0.64117  1.0000
  H   H178      1.0  0.77118  0.76896  0.69290  1.0000
  H   H179      1.0  0.04615  0.88885  0.75646  1.0000
  H   H180      1.0  0.07700  0.86696  0.82432  1.0000
  H   H181      1.0  0.11233  0.88836  0.95742  1.0000
  H   H182      1.0  0.14359  0.03186  0.72284  1.0000
  H   H183      1.0  0.00526  0.97470  0.82785  1.0000
  H   H184      1.0  0.01622  0.92600  0.79581  1.0000
  H   H185      1.0  0.03969  0.89568  0.60510  1.0000
  H   H186      1.0  0.02581  0.94315  0.63739  1.0000
  H   H187      1.0  0.91708  0.04872  0.66261  1.0000
  H   H188      1.0  0.88194  0.09245  0.80416  1.0000
  H   H189      1.0  0.85338  0.05697  0.98452  1.0000
  H   H190      1.0  0.88332  0.99094  0.87118  1.0000
  H   H191      1.0  0.07681  0.16845  0.64205  1.0000
  H   H192      1.0  0.04108  0.14554  0.68460  1.0000
  H   H193      1.0  0.11850  0.15216  0.55846  1.0000
  H   H194      1.0  0.15653  0.02734  0.90090  1.0000
  H   H195      1.0  0.11961  0.99758  0.91516  1.0000
  H   H196      1.0  0.02430  0.12786  0.79427  1.0000
  H   H197      1.0  0.01087  0.11223  0.66295  1.0000
  H   H198      1.0  0.22501  0.11491  0.01470  1.0000
  H   H199      1.0  0.18305  0.15739  0.87277  1.0000
  H   H200      1.0  0.14439  0.13249  0.89696  1.0000
  H   H201      1.0  0.93872  0.85318  0.76371  1.0000
  H   H202      1.0  0.96987  0.91208  0.81605  1.0000
  H   H203      1.0  0.89545  0.82695  0.72201  1.0000
  H   H204      1.0  0.84396  0.86398  0.59228  1.0000
  H   H205      1.0  0.87575  0.91409  0.61931  1.0000
  H   H206      1.0  0.98309  0.10187  0.76987  1.0000
  H   H207      1.0  0.00222  0.05387  0.71465  1.0000
  H   H208      1.0  0.94864  0.98544  0.55416  1.0000
  C   C1        1.0  0.59727  0.41250  0.39991  1.0000
  C   C2        1.0  0.59678  0.46015  0.45454  1.0000
  C   C3        1.0  0.57696  0.47281  0.42232  1.0000
  C   C4        1.0  0.55915  0.43764  0.33337  1.0000
  C   C5        1.0  0.56010  0.39011  0.27613  1.0000
  C   C6        1.0  0.57869  0.37804  0.30963  1.0000
  C   C7        1.0  0.61611  0.40098  0.43756  1.0000
  C   C8        1.0  0.63728  0.44120  0.02632  1.0000
  C   C9        1.0  0.63560  0.48724  0.07468  1.0000
  C   C10       1.0  0.61638  0.49744  0.03884  1.0000
  C   C11       1.0  0.57455  0.52264  0.48327  1.0000
  C   C12       1.0  0.59189  0.54164  0.46022  1.0000
  C   C13       1.0  0.58909  0.59007  0.52110  1.0000
  C   C14       1.0  0.56637  0.61175  0.06646  1.0000
  C   C15       1.0  0.55006  0.59333  0.09022  1.0000
  C   C16       1.0  0.55446  0.54753  0.03993  1.0000
  C   C17       1.0  0.60654  0.60862  0.49797  1.0000
  C   C18       1.0  0.62688  0.58166  0.42182  1.0000
  C   C19       1.0  0.62995  0.53447  0.36581  1.0000
  C   C20       1.0  0.61267  0.51451  0.38098  1.0000
  C   C21       1.0  0.39824  0.57123  0.39112  1.0000
  C   C22       1.0  0.40238  0.54802  0.42753  1.0000
  C   C23       1.0  0.41991  0.50940  0.35942  1.0000
  C   C24       1.0  0.43229  0.49495  0.25730  1.0000
  C   C25       1.0  0.42844  0.51884  0.22409  1.0000
  C   C26       1.0  0.41180  0.55596  0.28906  1.0000
  C   C27       1.0  0.38093  0.60914  0.45778  1.0000
  C   C28       1.0  0.36582  0.62260  0.05497  1.0000
  C   C29       1.0  0.37020  0.59931  0.09006  1.0000
  C   C30       1.0  0.38751  0.56298  0.02815  1.0000
  C   C31       1.0  0.42642  0.48531  0.39519  1.0000
  C   C32       1.0  0.40934  0.45353  0.37648  1.0000
  C   C33       1.0  0.41796  0.42288  0.38546  1.0000
  C   C34       1.0  0.44350  0.42284  0.40672  1.0000
  C   C35       1.0  0.45943  0.45515  0.43119  1.0000
  C   C36       1.0  0.45089  0.48757  0.42974  1.0000
  C   C37       1.0  0.40100  0.39348  0.37367  1.0000
  C   C38       1.0  0.37584  0.39315  0.35425  1.0000
  C   C39       1.0  0.36773  0.42049  0.33480  1.0000
  C   C40       1.0  0.38392  0.44915  0.34413  1.0000
  C   C41       1.0  0.50223  0.56489  0.19900  1.0000
  C   C42       1.0  0.53010  0.56009  0.19164  1.0000
  C   C43       1.0  0.50608  0.40536  0.15423  1.0000
  C   C44       1.0  0.51613  0.43553  0.28763  1.0000
  C   C45       1.0  0.65611  0.43141  0.07358  1.0000
  C   C46       1.0  0.64469  0.59938  0.39258  1.0000
  C   C47       1.0  0.34742  0.66146  0.11927  1.0000
  C   C48       1.0  0.32374  0.65853  0.14988  1.0000
  C   C49       1.0  0.30604  0.69342  0.19868  1.0000
  C   C50       1.0  0.31129  0.73360  0.22267  1.0000
  C   C51       1.0  0.33550  0.73754  0.19756  1.0000
  C   C52       1.0  0.35291  0.70210  0.14631  1.0000
  C   C53       1.0  0.64928  0.40526  0.09697  1.0000
  C   C54       1.0  0.66627  0.39435  0.13987  1.0000
  C   C55       1.0  0.69136  0.40836  0.15904  1.0000
  C   C56       1.0  0.69807  0.43551  0.13801  1.0000
  C   C57       1.0  0.68082  0.44744  0.09804  1.0000
  C   C58       1.0  0.67018  0.59111  0.38705  1.0000
  C   C59       1.0  0.68669  0.60519  0.35131  1.0000
  C   C60       1.0  0.67850  0.62686  0.31566  1.0000
  C   C61       1.0  0.65288  0.63523  0.32181  1.0000
  C   C62       1.0  0.63653  0.62222  0.36088  1.0000
  C   C63       1.0  0.29110  0.76562  0.26162  1.0000
  C   C64       1.0  0.29092  0.80895  0.30179  1.0000
  C   C65       1.0  0.31339  0.83293  0.32482  1.0000
  C   C66       1.0  0.26807  0.83260  0.31648  1.0000
  C   C67       1.0  0.31074  0.28089  0.35258  1.0000
  C   C68       1.0  0.31433  0.25751  0.38417  1.0000
  C   C69       1.0  0.33736  0.26073  0.43561  1.0000
  C   C70       1.0  0.69721  0.63807  0.27486  1.0000
  C   C71       1.0  0.69592  0.65590  0.22716  1.0000
  C   C72       1.0  0.67311  0.66972  0.21496  1.0000
  C   C73       1.0  0.71826  0.66403  0.19083  1.0000
  C   C74       1.0  0.71081  0.39420  0.19039  1.0000
  C   C75       1.0  0.71011  0.36943  0.21898  1.0000
  C   C76       1.0  0.68742  0.35614  0.23297  1.0000
  C   C77       1.0  0.26946  0.86845  0.32136  1.0000
  C   C78       1.0  0.24834  0.88681  0.31800  1.0000
  C   C79       1.0  0.22460  0.87040  0.30962  1.0000
  C   C80       1.0  0.22318  0.83750  0.31527  1.0000
  C   C81       1.0  0.24433  0.81903  0.31841  1.0000
  C   C82       1.0  0.71745  0.69364  0.17436  1.0000
  C   C83       1.0  0.73878  0.70482  0.15082  1.0000
  C   C84       1.0  0.76196  0.68705  0.14283  1.0000
  C   C85       1.0  0.76248  0.65469  0.15021  1.0000
  C   C86       1.0  0.74116  0.64339  0.17324  1.0000
  C   C87       1.0  0.20202  0.88459  0.28910  1.0000
  C   C88       1.0  0.20274  0.90778  0.25586  1.0000
  C   C89       1.0  0.17922  0.86973  0.29769  1.0000
  C   C90       1.0  0.23691  0.14575  0.33376  1.0000
  C   C91       1.0  0.22923  0.15467  0.43258  1.0000
  C   C92       1.0  0.22495  0.10839  0.21207  1.0000
  C   C93       1.0  0.79686  0.27630  0.17891  1.0000
  C   C94       1.0  0.79529  0.23196  0.13315  1.0000
  C   C95       1.0  0.82001  0.29704  0.19469  1.0000
  C   C96       1.0  0.78521  0.70213  0.13031  1.0000
  C   C97       1.0  0.78698  0.74345  0.16145  1.0000
  C   C98       1.0  0.80605  0.67233  0.09006  1.0000
  C   C99       1.0  0.09222  0.93907  0.47612  1.0000
  C   C100      1.0  0.09407  0.98645  0.02556  1.0000
  C   C101      1.0  0.07556  0.99736  0.48221  1.0000
  C   C102      1.0  0.05807  0.96198  0.38923  1.0000
  C   C103      1.0  0.05753  0.91555  0.33882  1.0000
  C   C104      1.0  0.07416  0.90459  0.38194  1.0000
  C   C105      1.0  0.11230  0.92534  0.00438  1.0000
  C   C106      1.0  0.13065  0.95790  0.09354  1.0000
  C   C107      1.0  0.13065  0.00539  0.14951  1.0000
  C   C108      1.0  0.11261  0.01962  0.11977  1.0000
  C   C109      1.0  0.01897  0.94826  0.28991  1.0000
  C   C110      1.0  0.01841  0.91802  0.14936  1.0000
  C   C111      1.0  0.89913  0.03155  0.26173  1.0000
  C   C112      1.0  0.89941  0.00264  0.28252  1.0000
  C   C113      1.0  0.91645  0.96368  0.21479  1.0000
  C   C114      1.0  0.93250  0.95431  0.12879  1.0000
  C   C115      1.0  0.93252  0.98335  0.11006  1.0000
  C   C116      1.0  0.91606  0.02098  0.17509  1.0000
  C   C117      1.0  0.88248  0.07061  0.33001  1.0000
  C   C118      1.0  0.86623  0.08208  0.41740  1.0000
  C   C119      1.0  0.86683  0.05368  0.43877  1.0000
  C   C120      1.0  0.88305  0.01573  0.37488  1.0000
  C   C121      1.0  0.07682  0.04718  0.03514  1.0000
  C   C122      1.0  0.09768  0.06169  0.01344  1.0000
  C   C123      1.0  0.09772  0.10725  0.05650  1.0000
  C   C124      1.0  0.07676  0.13730  0.12098  1.0000
  C   C125      1.0  0.05694  0.12389  0.14505  1.0000
  C   C126      1.0  0.05684  0.07889  0.10228  1.0000
  C   C127      1.0  0.11883  0.12178  0.03741  1.0000
  C   C128      1.0  0.14003  0.09003  0.47393  1.0000
  C   C129      1.0  0.13979  0.04570  0.43499  1.0000
  C   C130      1.0  0.11894  0.02958  0.44506  1.0000
  C   C131      1.0  0.99630  0.06985  0.19050  1.0000
  C   C132      1.0  0.01773  0.09700  0.20183  1.0000
  C   C133      1.0  0.92001  0.93520  0.23954  1.0000
  C   C134      1.0  0.90178  0.90283  0.21099  1.0000
  C   C135      1.0  0.90767  0.87429  0.23030  1.0000
  C   C136      1.0  0.93220  0.87530  0.26559  1.0000
  C   C137      1.0  0.94965  0.90612  0.29084  1.0000
  C   C138      1.0  0.94304  0.93818  0.28611  1.0000
  C   C139      1.0  0.88896  0.84574  0.21367  1.0000
  C   C140      1.0  0.86500  0.84391  0.17724  1.0000
  C   C141      1.0  0.85981  0.86978  0.15016  1.0000
  C   C142      1.0  0.87762  0.89789  0.16531  1.0000
  C   C143      1.0  0.84535  0.81677  0.16920  1.0000
  C   C144      1.0  0.82097  0.83417  0.20386  1.0000
  C   C145      1.0  0.80261  0.80945  0.20023  1.0000
  C   C146      1.0  0.80752  0.76585  0.16070  1.0000
  C   C147      1.0  0.83200  0.74828  0.12514  1.0000
  C   C148      1.0  0.85032  0.77337  0.12987  1.0000
  C   C149      1.0  0.97483  0.05520  0.02874  1.0000
  C   C150      1.0  0.95293  0.02247  0.43274  1.0000
  C   C151      1.0  0.98734  0.87731  0.98695  1.0000
  C   C152      1.0  0.97159  0.91757  0.02670  1.0000
  C   C153      1.0  0.44270  0.41043  0.11642  1.0000
  C   C154      1.0  0.46561  0.37916  0.05446  1.0000
  C   C155      1.0  0.46950  0.59653  0.17126  1.0000
  C   C156      1.0  0.46453  0.56686  0.03279  1.0000
  C   C157      1.0  0.60059  0.41423  0.89362  1.0000
  C   C158      1.0  0.59826  0.46152  0.94726  1.0000
  C   C159      1.0  0.57811  0.47085  0.90773  1.0000
  C   C160      1.0  0.56135  0.43342  0.81631  1.0000
  C   C161      1.0  0.56414  0.38641  0.76098  1.0000
  C   C162      1.0  0.58328  0.37713  0.79922  1.0000
  C   C163      1.0  0.61993  0.40547  0.93603  1.0000
  C   C164      1.0  0.63484  0.43394  0.52213  1.0000
  C   C165      1.0  0.63511  0.47985  0.56930  1.0000
  C   C166      1.0  0.61633  0.49310  0.53983  1.0000
  C   C167      1.0  0.57464  0.51946  0.96259  1.0000
  C   C168      1.0  0.59180  0.53864  0.93929  1.0000
  C   C169      1.0  0.58778  0.58558  0.99247  1.0000
  C   C170      1.0  0.56871  0.61795  0.60263  1.0000
  C   C171      1.0  0.55202  0.59942  0.62478  1.0000
  C   C172      1.0  0.55511  0.55193  0.56618  1.0000
  C   C173      1.0  0.60527  0.60461  0.97084  1.0000
  C   C174      1.0  0.62685  0.57998  0.90454  1.0000
  C   C175      1.0  0.63108  0.53450  0.85709  1.0000
  C   C176      1.0  0.61378  0.51372  0.86970  1.0000
  C   C177      1.0  0.39703  0.57003  0.88927  1.0000
  C   C178      1.0  0.40123  0.54632  0.92429  1.0000
  C   C179      1.0  0.41916  0.50832  0.85699  1.0000
  C   C180      1.0  0.43170  0.49465  0.75630  1.0000
  C   C181      1.0  0.42772  0.51883  0.72407  1.0000
  C   C182      1.0  0.41087  0.55567  0.78898  1.0000
  C   C183      1.0  0.37951  0.60767  0.95606  1.0000
  C   C184      1.0  0.36753  0.62509  0.55861  1.0000
  C   C185      1.0  0.37191  0.60246  0.59558  1.0000
  C   C186      1.0  0.38897  0.56573  0.53335  1.0000
  C   C187      1.0  0.42612  0.48428  0.89250  1.0000
  C   C188      1.0  0.40932  0.45208  0.87339  1.0000
  C   C189      1.0  0.41823  0.42174  0.88294  1.0000
  C   C190      1.0  0.44379  0.42227  0.90476  1.0000
  C   C191      1.0  0.45950  0.45454  0.92813  1.0000
  C   C192      1.0  0.45075  0.48668  0.92606  1.0000
  C   C193      1.0  0.40157  0.39183  0.87045  1.0000
  C   C194      1.0  0.37639  0.39075  0.84997  1.0000
  C   C195      1.0  0.36802  0.41765  0.82955  1.0000
  C   C196      1.0  0.38393  0.44676  0.83944  1.0000
  C   C197      1.0  0.50135  0.56666  0.71288  1.0000
  C   C198      1.0  0.52923  0.56276  0.71177  1.0000
  C   C199      1.0  0.50224  0.42159  0.67939  1.0000
  C   C200      1.0  0.51815  0.42818  0.77281  1.0000
  C   C201      1.0  0.64470  0.59826  0.87686  1.0000
  C   C202      1.0  0.35955  0.36313  0.85225  1.0000
  C   C203      1.0  0.33696  0.34310  0.78392  1.0000
  C   C204      1.0  0.32197  0.31630  0.78665  1.0000
  C   C205      1.0  0.32894  0.30736  0.85568  1.0000
  C   C206      1.0  0.35121  0.32891  0.92774  1.0000
  C   C207      1.0  0.36585  0.35634  0.92645  1.0000
  C   C208      1.0  0.67035  0.59291  0.87942  1.0000
  C   C209      1.0  0.68694  0.60738  0.84493  1.0000
  C   C210      1.0  0.67880  0.62723  0.80417  1.0000
  C   C211      1.0  0.65305  0.63281  0.80240  1.0000
  C   C212      1.0  0.63657  0.61898  0.83900  1.0000
  C   C213      1.0  0.29243  0.76615  0.75579  1.0000
  C   C214      1.0  0.29189  0.80797  0.78881  1.0000
  C   C215      1.0  0.31404  0.83032  0.80156  1.0000
  C   C216      1.0  0.26881  0.83182  0.80685  1.0000
  C   C217      1.0  0.31263  0.27729  0.84836  1.0000
  C   C218      1.0  0.31626  0.25491  0.88279  1.0000
  C   C219      1.0  0.33912  0.25872  0.93616  1.0000
  C   C220      1.0  0.29676  0.22541  0.86725  1.0000
  C   C221      1.0  0.69768  0.63941  0.76632  1.0000
  C   C222      1.0  0.69668  0.65963  0.72486  1.0000
  C   C223      1.0  0.67404  0.67576  0.71888  1.0000
  C   C224      1.0  0.71910  0.66863  0.69099  1.0000
  C   C225      1.0  0.70752  0.38594  0.68683  1.0000
  C   C226      1.0  0.70723  0.36262  0.71965  1.0000
  C   C227      1.0  0.68475  0.34854  0.73267  1.0000
  C   C228      1.0  0.26951  0.86582  0.80499  1.0000
  C   C229      1.0  0.24800  0.88428  0.80487  1.0000
  C   C230      1.0  0.22454  0.86999  0.80710  1.0000
  C   C231      1.0  0.22395  0.83914  0.81971  1.0000
  C   C232      1.0  0.24550  0.82047  0.81939  1.0000
  C   C233      1.0  0.71823  0.69865  0.67579  1.0000
  C   C234      1.0  0.73950  0.71052  0.65374  1.0000
  C   C235      1.0  0.76276  0.69290  0.64554  1.0000
  C   C236      1.0  0.76338  0.66047  0.65278  1.0000
  C   C237      1.0  0.74213  0.64856  0.67456  1.0000
  C   C238      1.0  0.29761  0.21650  0.93906  1.0000
  C   C239      1.0  0.27869  0.19105  0.93027  1.0000
  C   C240      1.0  0.25826  0.17298  0.84820  1.0000
  C   C241      1.0  0.25801  0.17978  0.77185  1.0000
  C   C242      1.0  0.27680  0.20544  0.78124  1.0000
  C   C243      1.0  0.20143  0.88417  0.78998  1.0000
  C   C244      1.0  0.20140  0.90888  0.76113  1.0000
  C   C245      1.0  0.17908  0.86770  0.79660  1.0000
  C   C246      1.0  0.23711  0.14826  0.84153  1.0000
  C   C247      1.0  0.22955  0.15701  0.94022  1.0000
  C   C248      1.0  0.22462  0.11179  0.72107  1.0000
  C   C249      1.0  0.79606  0.27729  0.69377  1.0000
  C   C250      1.0  0.79525  0.23298  0.64829  1.0000
  C   C251      1.0  0.81885  0.29878  0.70888  1.0000
  C   C252      1.0  0.78599  0.70739  0.63097  1.0000
  C   C253      1.0  0.78806  0.74797  0.65891  1.0000
  C   C254      1.0  0.80660  0.67697  0.58952  1.0000
  C   C255      1.0  0.09419  0.93822  0.96745  1.0000
  C   C256      1.0  0.09293  0.98609  0.52712  1.0000
  C   C257      1.0  0.07631  0.99899  0.98517  1.0000
  C   C258      1.0  0.05892  0.96382  0.89058  1.0000
  C   C259      1.0  0.05914  0.91620  0.83320  1.0000
  C   C260      1.0  0.07643  0.90385  0.87079  1.0000
  C   C261      1.0  0.10991  0.92714  0.51681  1.0000
  C   C262      1.0  0.12859  0.95946  0.60331  1.0000
  C   C263      1.0  0.12923  0.00600  0.65377  1.0000
  C   C264      1.0  0.11168  0.01933  0.61972  1.0000
  C   C265      1.0  0.02043  0.94898  0.78479  1.0000
  C   C266      1.0  0.02316  0.91860  0.64483  1.0000
  C   C267      1.0  0.89972  0.03280  0.75316  1.0000
  C   C268      1.0  0.90018  0.00240  0.76922  1.0000
  C   C269      1.0  0.91829  0.96517  0.70430  1.0000
  C   C270      1.0  0.93533  0.95942  0.62689  1.0000
  C   C271      1.0  0.93501  0.98989  0.61274  1.0000
  C   C272      1.0  0.91742  0.02540  0.67381  1.0000
  C   C273      1.0  0.88230  0.07056  0.81990  1.0000
  C   C274      1.0  0.86549  0.07977  0.90238  1.0000
  C   C275      1.0  0.86610  0.04971  0.91848  1.0000
  C   C276      1.0  0.88298  0.01273  0.85525  1.0000
  C   C277      1.0  0.07626  0.04470  0.52781  1.0000
  C   C278      1.0  0.09733  0.05852  0.50503  1.0000
  C   C279      1.0  0.09763  0.10375  0.54646  1.0000
  C   C280      1.0  0.07674  0.13408  0.61001  1.0000
  C   C281      1.0  0.05664  0.12111  0.63378  1.0000
  C   C282      1.0  0.05624  0.07652  0.59289  1.0000
  C   C283      1.0  0.11882  0.11779  0.52647  1.0000
  C   C284      1.0  0.14011  0.09417  0.98454  1.0000
  C   C285      1.0  0.14006  0.04956  0.94416  1.0000
  C   C286      1.0  0.11929  0.03290  0.95280  1.0000
  C   C287      1.0  0.99576  0.07283  0.69355  1.0000
  C   C288      1.0  0.01731  0.09723  0.69546  1.0000
  C   C289      1.0  0.16268  0.10939  0.96890  1.0000
  C   C290      1.0  0.18580  0.10370  0.99857  1.0000
  C   C291      1.0  0.20741  0.11935  0.98983  1.0000
  C   C292      1.0  0.20684  0.13888  0.94420  1.0000
  C   C293      1.0  0.18381  0.14257  0.90873  1.0000
  C   C294      1.0  0.16207  0.12886  0.92315  1.0000
  C   C295      1.0  0.92185  0.93556  0.72563  1.0000
  C   C296      1.0  0.90393  0.90201  0.69340  1.0000
  C   C297      1.0  0.90974  0.87400  0.71455  1.0000
  C   C298      1.0  0.93408  0.87623  0.75392  1.0000
  C   C299      1.0  0.95117  0.90842  0.78345  1.0000
  C   C300      1.0  0.94442  0.94000  0.77749  1.0000
  C   C301      1.0  0.89099  0.84554  0.69829  1.0000
  C   C302      1.0  0.86708  0.84328  0.66061  1.0000
  C   C303      1.0  0.86216  0.86786  0.62947  1.0000
  C   C304      1.0  0.88000  0.89577  0.64393  1.0000
  C   C305      1.0  0.97463  0.05329  0.52336  1.0000
  C   C306      1.0  0.95319  0.02476  0.93733  1.0000
  C   C307      1.0  0.99224  0.88716  0.48738  1.0000
  C   C308      1.0  0.97662  0.93100  0.54828  1.0000
  C   C309      1.0  0.44259  0.41047  0.61574  1.0000
  C   C310      1.0  0.46532  0.37868  0.55137  1.0000
  C   C311      1.0  0.46936  0.59698  0.67775  1.0000
  C   C312      1.0  0.46491  0.56814  0.53958  1.0000
  N   N1        1.0  0.33124  0.85423  0.34561  1.0000
  N   N2        1.0  0.35595  0.26239  0.47806  1.0000
  N   N3        1.0  0.66953  0.34380  0.24518  1.0000
  N   N4        1.0  0.65496  0.68221  0.20432  1.0000
  N   N5        1.0  0.16102  0.85656  0.30541  1.0000
  N   N6        1.0  0.21688  0.07549  0.10895  1.0000
  N   N7        1.0  0.83852  0.31564  0.20937  1.0000
  N   N8        1.0  0.82290  0.65078  0.55512  1.0000
  N   N9        1.0  0.33153  0.85044  0.81389  1.0000
  N   N10       1.0  0.35753  0.26067  0.98012  1.0000
  N   N11       1.0  0.66697  0.33559  0.74362  1.0000
  N   N12       1.0  0.65598  0.69027  0.71428  1.0000
  N   N13       1.0  0.16126  0.85308  0.80219  1.0000
  N   N14       1.0  0.21616  0.07948  0.61856  1.0000
  N   N15       1.0  0.83708  0.31781  0.72281  1.0000
  N   N16       1.0  0.82259  0.64681  0.05744  1.0000
  O   O1        1.0  0.45003  0.45932  0.18722  1.0000
  O   O2        1.0  0.49520  0.59843  0.19774  1.0000
  O   O3        1.0  0.53849  0.52838  0.06264  1.0000
  O   O4        1.0  0.46900  0.51661  0.45141  1.0000
  O   O5        1.0  0.48146  0.39072  0.14827  1.0000
  O   O6        1.0  0.54125  0.45024  0.29883  1.0000
  O   O7        1.0  0.04234  0.97373  0.34588  1.0000
  O   O8        1.0  0.94779  0.91530  0.06304  1.0000
  O   O9        1.0  0.03749  0.06385  0.12339  1.0000
  O   O10       1.0  0.96069  0.97243  0.32921  1.0000
  O   O11       1.0  0.99633  0.88877  0.09349  1.0000
  O   O12       1.0  0.98380  0.03529  0.06933  1.0000
  O   O13       1.0  0.44977  0.45956  0.68758  1.0000
  O   O14       1.0  0.49497  0.59870  0.70570  1.0000
  O   O15       1.0  0.53867  0.53210  0.58511  1.0000
  O   O16       1.0  0.46883  0.51547  0.94626  1.0000
  O   O17       1.0  0.48255  0.38859  0.63851  1.0000
  O   O18       1.0  0.54276  0.44218  0.77402  1.0000
  O   O19       1.0  0.04261  0.97743  0.85378  1.0000
  O   O20       1.0  0.95198  0.92238  0.56344  1.0000
  O   O21       1.0  0.03642  0.06244  0.61485  1.0000
  O   O22       1.0  0.96150  0.97585  0.82632  1.0000
  O   O23       1.0  0.00144  0.88854  0.57646  1.0000
  O   O24       1.0  0.98254  0.03692  0.57461  1.0000
  C  Sn1       1.0  0.16643  0.11451  0.36921  1.0000
  C   C313      1.0  0.16313  0.09673  0.41810  1.0000
  C  Sn2       1.0  0.18221  0.10194  0.48867  1.0000
  C  Sn3       1.0  0.20461  0.12544  0.51091  1.0000
  C   C314      1.0  0.20791  0.14321  0.46206  1.0000
  C  Sn4       1.0  0.18883  0.13801  0.39145  1.0000
  O  Te1       1.0  0.14710  0.10890  0.29894  1.0000
  O  Te2       1.0  0.17894  0.08385  0.53654  1.0000
  O  Te3       1.0  0.22395  0.13103  0.58125  1.0000
  O  Te4       1.0  0.19210  0.15608  0.34362  1.0000
  Mg  Mg1       1.0  0.21064  0.10032  0.62663  1.0000
  Mg  Mg2       1.0  0.16040  0.13966  0.25358  1.0000
  C  Sn5       1.0  0.32827  0.35223  0.31227  1.0000
  C   C315      1.0  0.35124  0.37357  0.37254  1.0000
  C  Sn6       1.0  0.36396  0.36142  0.42433  1.0000
  C  Sn7       1.0  0.35351  0.32722  0.41564  1.0000
  C   C316      1.0  0.33056  0.30589  0.35538  1.0000
  C  Sn8       1.0  0.31782  0.31802  0.30358  1.0000
  O  Te5       1.0  0.31588  0.36491  0.26117  1.0000
  O  Te6       1.0  0.38690  0.38325  0.48417  1.0000
  O  Te7       1.0  0.36593  0.31455  0.46681  1.0000
  O  Te8       1.0  0.29490  0.29621  0.24375  1.0000
  Mg  Mg3       1.0  0.39665  0.35411  0.53899  1.0000
  Mg  Mg4       1.0  0.28514  0.32530  0.18884  1.0000
  C  Sn9       1.0  0.33937  0.72403  0.64364  1.0000
  C   C317      1.0  0.31532  0.72745  0.68129  1.0000
  C  Sn10      1.0  0.30816  0.70096  0.70214  1.0000
  C  Sn11      1.0  0.32540  0.67043  0.68509  1.0000
  C   C318      1.0  0.34944  0.66702  0.64748  1.0000
  C  Sn12      1.0  0.35662  0.69350  0.62658  1.0000
  O  Te9       1.0  0.34613  0.75085  0.62334  1.0000
  O  Te10      1.0  0.28401  0.70496  0.73970  1.0000
  O  Te11      1.0  0.31863  0.64360  0.70542  1.0000
  O  Te12      1.0  0.38076  0.68951  0.58907  1.0000
  Mg  Mg5       1.0  0.28362  0.66122  0.75575  1.0000
  Mg  Mg6       1.0  0.38117  0.73326  0.57306  1.0000
  C  Sn13      1.0  0.17826  0.94632  0.63421  1.0000
  C   C319      1.0  0.15279  0.93734  0.61493  1.0000
  C  Sn14      1.0  0.14047  0.92369  0.66315  1.0000
  C  Sn15      1.0  0.15388  0.91894  0.73214  1.0000
  C   C320      1.0  0.17933  0.92792  0.75140  1.0000
  C  Sn16      1.0  0.19167  0.94157  0.70320  1.0000
  O  Te13      1.0  0.19020  0.95993  0.58515  1.0000
  O  Te14      1.0  0.11500  0.91490  0.64262  1.0000
  O  Te15      1.0  0.14192  0.90532  0.78119  1.0000
  O  Te16      1.0  0.21712  0.95037  0.72371  1.0000
  Mg  Mg7       1.0  0.10703  0.89729  0.72832  1.0000
  Mg  Mg8       1.0  0.22510  0.96800  0.63812  1.0000
  C  Sn17      1.0  0.69203  0.44013  0.65041  1.0000
  C   C321      1.0  0.68791  0.41568  0.68024  1.0000
  C  Sn18      1.0  0.66582  0.39011  0.64357  1.0000
  C  Sn19      1.0  0.64747  0.38893  0.57561  1.0000
  C   C322      1.0  0.65160  0.41336  0.54579  1.0000
  C  Sn20      1.0  0.67368  0.43894  0.58244  1.0000
  O  Te17      1.0  0.71425  0.46546  0.68801  1.0000
  O  Te18      1.0  0.66212  0.36597  0.67452  1.0000
  O  Te19      1.0  0.62524  0.36357  0.53802  1.0000
  O  Te20      1.0  0.67739  0.46307  0.55151  1.0000
  Mg  Mg9       1.0  0.62883  0.33641  0.60238  1.0000
  Mg  Mg10      1.0  0.71068  0.49262  0.62354  1.0000
  C  Sn21      1.0  0.15507  0.89423  0.15056  1.0000
  C   C323      1.0  0.18018  0.90631  0.17997  1.0000
  C  Sn22      1.0  0.19022  0.94250  0.19772  1.0000
  C  Sn23      1.0  0.17483  0.96715  0.18591  1.0000
  C   C324      1.0  0.14974  0.95507  0.15654  1.0000
  C  Sn24      1.0  0.13969  0.91888  0.13875  1.0000
  O  Te21      1.0  0.14544  0.85793  0.13323  1.0000
  O  Te22      1.0  0.21537  0.95393  0.22701  1.0000
  O  Te23      1.0  0.18449  0.00347  0.20327  1.0000
  O  Te24      1.0  0.11454  0.90745  0.10950  1.0000
  Mg  Mg11      1.0  0.21985  0.00607  0.24189  1.0000
  Mg  Mg12      1.0  0.11004  0.85534  0.09466  1.0000
  C  Sn25      1.0  0.74417  0.28537  0.69802  1.0000
  C   C325      1.0  0.76884  0.29428  0.69408  1.0000
  C  Sn26      1.0  0.77529  0.33490  0.72384  1.0000
  C  Sn27      1.0  0.75671  0.36731  0.75833  1.0000
  C   C326      1.0  0.73206  0.35839  0.76227  1.0000
  C  Sn28      1.0  0.72559  0.31778  0.73251  1.0000
  O  Te25      1.0  0.73815  0.24453  0.66790  1.0000
  O  Te26      1.0  0.80007  0.34304  0.71920  1.0000
  O  Te27      1.0  0.76275  0.40816  0.78845  1.0000
  O  Te28      1.0  0.70083  0.30964  0.73716  1.0000
  Mg  Mg13      1.0  0.79905  0.40367  0.76848  1.0000
  Mg  Mg14      1.0  0.70182  0.24903  0.68796  1.0000
  C  Sn29      1.0  0.81078  0.15034  0.06895  1.0000
  C   C327      1.0  0.81505  0.19429  0.11161  1.0000
  C  Sn30      1.0  0.83624  0.20086  0.07507  1.0000
  C  Sn31      1.0  0.85647  0.44462  0.99413  1.0000
  C   C328      1.0  0.85219  0.40070  0.95149  1.0000
  C  Sn32      1.0  0.83101  0.39410  0.98801  1.0000
  O  Te29      1.0  0.78947  0.14457  0.10668  1.0000
  O  Te30      1.0  0.84011  0.24513  0.11898  1.0000
  O  Te31      1.0  0.87779  0.45042  0.95642  1.0000
  O  Te32      1.0  0.82713  0.34986  0.94413  1.0000
  Mg  Mg15      1.0  0.87190  0.23545  0.04117  1.0000
  Mg  Mg16      1.0  0.79239  0.07755  0.02182  1.0000
  C  Sn33      1.0  0.29761  0.19720  0.40430  1.0000
  C   C329      1.0  0.29826  0.21291  0.34953  1.0000
  C  Sn34      1.0  0.27686  0.21165  0.29617  1.0000
  C  Sn35      1.0  0.25434  0.19436  0.29766  1.0000
  C   C330      1.0  0.25370  0.17866  0.35243  1.0000
  C  Sn36      1.0  0.27509  0.17990  0.40579  1.0000
  O  Te33      1.0  0.31923  0.19879  0.45710  1.0000
  O  Te34      1.0  0.27797  0.22754  0.24192  1.0000
  O  Te35      1.0  0.23271  0.19278  0.24480  1.0000
  O  Te36      1.0  0.27399  0.16404  0.46004  1.0000
  Mg  Mg17      1.0  0.24358  0.21837  0.18209  1.0000
  Mg  Mg18      1.0  0.30836  0.17322  0.51995  1.0000
  C  Sn37      1.0  0.73465  0.32238  0.26912  1.0000
  C   C331      1.0  0.73346  0.35586  0.26669  1.0000
  C  Sn38      1.0  0.75356  0.36244  0.22501  1.0000
  C  Sn39      1.0  0.77530  0.33498  0.18485  1.0000
  C   C332      1.0  0.77649  0.30152  0.18728  1.0000
  C  Sn40      1.0  0.75640  0.29492  0.22896  1.0000
  O  Te37      1.0  0.71433  0.31639  0.31114  1.0000
  O  Te38      1.0  0.75193  0.39613  0.22348  1.0000
  O  Te39      1.0  0.79563  0.34100  0.14282  1.0000
  O  Te40      1.0  0.75802  0.26125  0.23048  1.0000
  Mg  Mg19      1.0  0.78449  0.39127  0.15813  1.0000
  Mg  Mg20      1.0  0.72546  0.26606  0.29575  1.0000
  C  Sn41      1.0  0.81721  0.11864  0.48433  1.0000
  C   C333      1.0  0.84227  0.11720  0.46107  1.0000
  C  Sn42      1.0  0.85536  0.15964  0.51998  1.0000
  C  Sn43      1.0  0.84268  0.20446  0.60395  1.0000
  C   C334      1.0  0.81763  0.20589  0.62718  1.0000
  C  Sn44      1.0  0.80499  0.16347  0.56830  1.0000
  O  Te41      1.0  0.80495  0.07577  0.42440  1.0000
  O  Te42      1.0  0.88041  0.15729  0.49521  1.0000
  O  Te43      1.0  0.85496  0.24736  0.66388  1.0000
  O  Te44      1.0  0.77950  0.16581  0.59305  1.0000
  Mg  Mg21      1.0  0.88905  0.22555  0.59976  1.0000
  Mg  Mg22      1.0  0.77084  0.09757  0.48861  1.0000
  C  Sn45      1.0  0.84740  0.75931  0.58220  1.0000
  C   C335      1.0  0.84604  0.80202  0.61671  1.0000
  C  Sn46      1.0  0.82584  0.83280  0.68442  1.0000
  C  Sn47      1.0  0.80660  0.82067  0.71843  1.0000
  C   C336      1.0  0.80797  0.77799  0.68394  1.0000
  C  Sn48      1.0  0.82816  0.74718  0.61620  1.0000
  O  Te45      1.0  0.86777  0.72908  0.51452  1.0000
  O  Te46      1.0  0.82489  0.87529  0.71782  1.0000
  O  Te47      1.0  0.78622  0.85095  0.78615  1.0000
  O  Te48      1.0  0.82912  0.70472  0.58283  1.0000
  Mg  Mg23      1.0  0.79334  0.90479  0.80995  1.0000
  Mg  Mg24      1.0  0.86066  0.67521  0.49076  1.0000
