data_image0
_chemical_formula_structural       H208C312N16O24C2Sn2C2HTe2HMgC2Sn2C2HTe2HMgC2Sn2C2HTe2HMgC2Sn2C2HTe2HMgC2Sn2C2HTe2HMgC2Sn2C2HTe2HMgC2Sn2C2HTe2HMgC2Sn2C2HTe2HMgC2Sn2C2HTe2HMgC2Sn2C2HTe2HMgC2Sn2C2HTe2HMgC2Sn2C2HTe2HMg
_chemical_formula_sum              "H232 C360 N16 O24 Sn24 Te24 Mg12"
_cell_length_a       54.1166
_cell_length_b       40.865
_cell_length_c       15.582
_cell_angle_alpha    137.68
_cell_angle_beta     90.6145
_cell_angle_gamma    89.9653

_symmetry_space_group_name_H-M    'P1'
_space_group_IT_number       1

loop_
  _space_group_symop_operation_xyz
  'x, y, z'

loop_
  _atom_site_type_symbol
  _atom_site_label
  _atom_site_symmetry_multiplicity
  _atom_site_fract_x
  _atom_site_fract_y
  _atom_site_fract_z
  _atom_site_occupancy
  H   H1        1.0  0.98077  0.85410  0.41795  1.0000
  H   H2        1.0  0.00758  0.88392  0.43555  1.0000
  H   H3        1.0  0.96950  0.91255  0.94727  1.0000
  H   H4        1.0  0.98024  0.95336  0.10794  1.0000
  H   H5        1.0  0.42889  0.39677  0.04309  1.0000
  H   H6        1.0  0.43446  0.40957  0.17873  1.0000
  H   H7        1.0  0.47539  0.38428  0.00341  1.0000
  H   H8        1.0  0.45986  0.34065  0.98374  1.0000
  H   H9        1.0  0.46375  0.63414  0.23135  1.0000
  H   H10       1.0  0.45828  0.58290  0.19839  1.0000
  H   H11       1.0  0.47770  0.57756  0.00377  1.0000
  H   H12       1.0  0.44573  0.57334  0.02121  1.0000
  H   H13       1.0  0.98995  0.05105  0.47310  1.0000
  H   H14       1.0  0.96825  0.09272  0.11033  1.0000
  H   H15       1.0  0.94659  0.03584  0.39568  1.0000
  H   H16       1.0  0.93744  0.02473  0.48188  1.0000
  H   H17       1.0  0.11268  0.05656  0.16685  1.0000
  H   H18       1.0  0.54627  0.36324  0.20454  1.0000
  H   H19       1.0  0.57955  0.34161  0.26592  1.0000
  H   H20       1.0  0.61611  0.36495  0.39647  1.0000
  H   H21       1.0  0.64914  0.51551  0.14482  1.0000
  H   H22       1.0  0.61500  0.53353  0.08101  1.0000
  H   H23       1.0  0.56304  0.64693  0.10502  1.0000
  H   H24       1.0  0.53349  0.61284  0.14569  1.0000
  H   H25       1.0  0.60203  0.64024  0.01189  1.0000
  H   H26       1.0  0.64575  0.51307  0.30560  1.0000
  H   H27       1.0  0.61496  0.47762  0.33271  1.0000
  H   H28       1.0  0.43882  0.50628  0.14488  1.0000
  H   H29       1.0  0.40872  0.57399  0.26265  1.0000
  H   H30       1.0  0.37768  0.62520  0.42602  1.0000
  H   H31       1.0  0.36005  0.61128  0.16923  1.0000
  H   H32       1.0  0.39072  0.54627  0.05812  1.0000
  H   H33       1.0  0.45015  0.39794  0.40752  1.0000
  H   H34       1.0  0.47892  0.45647  0.45132  1.0000
  H   H35       1.0  0.40818  0.37023  0.37934  1.0000
  H   H36       1.0  0.34825  0.41985  0.31558  1.0000
  H   H37       1.0  0.37706  0.47009  0.33053  1.0000
  H   H38       1.0  0.49372  0.52896  0.11801  1.0000
  H   H39       1.0  0.49599  0.57812  0.28767  1.0000
  H   H40       1.0  0.53585  0.54317  0.21975  1.0000
  H   H41       1.0  0.53916  0.59589  0.25680  1.0000
  H   H42       1.0  0.50593  0.42764  0.13872  1.0000
  H   H43       1.0  0.51788  0.37361  0.08135  1.0000
  H   H44       1.0  0.51510  0.41482  0.30756  1.0000
  H   H45       1.0  0.50533  0.46879  0.35888  1.0000
  H   H46       1.0  0.31892  0.62762  0.13024  1.0000
  H   H47       1.0  0.28754  0.68946  0.21717  1.0000
  H   H48       1.0  0.34061  0.76796  0.21587  1.0000
  H   H49       1.0  0.37134  0.70584  0.12705  1.0000
  H   H50       1.0  0.35688  0.32495  0.98671  1.0000
  H   H51       1.0  0.38243  0.37382  0.98625  1.0000
  H   H52       1.0  0.63006  0.39417  0.08277  1.0000
  H   H53       1.0  0.66013  0.37436  0.15714  1.0000
  H   H54       1.0  0.71731  0.44653  0.15172  1.0000
  H   H55       1.0  0.68652  0.46784  0.08122  1.0000
  H   H56       1.0  0.27295  0.75127  0.25090  1.0000
  H   H57       1.0  0.29259  0.27540  0.31217  1.0000
  H   H58       1.0  0.71587  0.63093  0.28450  1.0000
  H   H59       1.0  0.72924  0.40293  0.18397  1.0000
  H   H60       1.0  0.71240  0.30947  0.24084  1.0000
  H   H61       1.0  0.74869  0.26974  0.22513  1.0000
  H   H62       1.0  0.79537  0.34994  0.20691  1.0000
  H   H63       1.0  0.75933  0.39015  0.22480  1.0000
  H   H64       1.0  0.22119  0.91771  0.25326  1.0000
  H   H65       1.0  0.24129  0.18065  0.02575  1.0000
  H   H66       1.0  0.77662  0.21979  0.12504  1.0000
  H   H67       1.0  0.76992  0.76395  0.19530  1.0000
  H   H68       1.0  0.04447  0.88792  0.26318  1.0000
  H   H69       1.0  0.07400  0.86876  0.34203  1.0000
  H   H70       1.0  0.10935  0.89085  0.47424  1.0000
  H   H71       1.0  0.14486  0.03130  0.21970  1.0000
  H   H72       1.0  0.00445  0.97558  0.34186  1.0000
  H   H73       1.0  0.01565  0.92524  0.30150  1.0000
  H   H74       1.0  0.03485  0.89480  0.10103  1.0000
  H   H75       1.0  0.01886  0.94245  0.14072  1.0000
  H   H76       1.0  0.18026  0.97955  0.14001  1.0000
  H   H77       1.0  0.21018  0.95773  0.21142  1.0000
  H   H78       1.0  0.15183  0.88599  0.21303  1.0000
  H   H79       1.0  0.12248  0.90720  0.13979  1.0000
  H   H80       1.0  0.91593  0.04330  0.16067  1.0000
  H   H81       1.0  0.88223  0.09142  0.31090  1.0000
  H   H82       1.0  0.85459  0.06301  0.50921  1.0000
  H   H83       1.0  0.88342  0.99510  0.39440  1.0000
  H   H84       1.0  0.78762  0.15002  0.05866  1.0000
  H   H85       1.0  0.84599  0.23334  0.10116  1.0000
  H   H86       1.0  0.07659  0.17179  0.15361  1.0000
  H   H87       1.0  0.04141  0.14831  0.19757  1.0000
  H   H88       1.0  0.11841  0.15628  0.07010  1.0000
  H   H89       1.0  0.15623  0.02336  0.39227  1.0000
  H   H90       1.0  0.11919  0.99455  0.40904  1.0000
  H   H91       1.0  0.02395  0.12685  0.30229  1.0000
  H   H92       1.0  0.01157  0.11330  0.17261  1.0000
  H   H93       1.0  0.18690  0.08787  0.03169  1.0000
  H   H94       1.0  0.22486  0.11365  0.51062  1.0000
  H   H95       1.0  0.18281  0.15300  0.36102  1.0000
  H   H96       1.0  0.14431  0.12720  0.38325  1.0000
  H   H97       1.0  0.93688  0.85214  0.27494  1.0000
  H   H98       1.0  0.96855  0.90770  0.31794  1.0000
  H   H99       1.0  0.89355  0.82623  0.23458  1.0000
  H   H100      1.0  0.84151  0.86641  0.11456  1.0000
  H   H101      1.0  0.87323  0.91706  0.14332  1.0000
  H   H102      1.0  0.98313  0.09727  0.26646  1.0000
  H   H103      1.0  0.00286  0.04902  0.20581  1.0000
  H   H104      1.0  0.94534  0.97580  0.04406  1.0000
  H   H105      1.0  0.97608  0.84404  0.92847  1.0000
  H   H106      1.0  0.00276  0.86951  0.92840  1.0000
  H   H107      1.0  0.97620  0.93553  0.48701  1.0000
  H   H108      1.0  0.98415  0.96452  0.64239  1.0000
  H   H109      1.0  0.42854  0.39715  0.54364  1.0000
  H   H110      1.0  0.43467  0.40927  0.67783  1.0000
  H   H111      1.0  0.47435  0.38153  0.49405  1.0000
  H   H112      1.0  0.45910  0.34073  0.48595  1.0000
  H   H113      1.0  0.46358  0.63469  0.73904  1.0000
  H   H114      1.0  0.45782  0.58251  0.70179  1.0000
  H   H115      1.0  0.47850  0.57902  0.51246  1.0000
  H   H116      1.0  0.44631  0.57508  0.52741  1.0000
  H   H117      1.0  0.98964  0.05623  0.98266  1.0000
  H   H118      1.0  0.96856  0.09149  0.59944  1.0000
  H   H119      1.0  0.94560  0.04057  0.90856  1.0000
  H   H120      1.0  0.93845  0.02378  0.98338  1.0000
  H   H121      1.0  0.11235  0.05550  0.66203  1.0000
  H   H122      1.0  0.55125  0.35767  0.68657  1.0000
  H   H123      1.0  0.58555  0.34107  0.75673  1.0000
  H   H124      1.0  0.62159  0.36941  0.89411  1.0000
  H   H125      1.0  0.64984  0.50580  0.63427  1.0000
  H   H126      1.0  0.61643  0.52927  0.58204  1.0000
  H   H127      1.0  0.56639  0.65436  0.64729  1.0000
  H   H128      1.0  0.53609  0.62030  0.68483  1.0000
  H   H129      1.0  0.60425  0.64533  0.54444  1.0000
  H   H130      1.0  0.64791  0.51484  0.80554  1.0000
  H   H131      1.0  0.61706  0.47800  0.82761  1.0000
  H   H132      1.0  0.43821  0.50680  0.64581  1.0000
  H   H133      1.0  0.40785  0.57413  0.76382  1.0000
  H   H134      1.0  0.37639  0.62448  0.92629  1.0000
  H   H135      1.0  0.36192  0.61508  0.67595  1.0000
  H   H136      1.0  0.39222  0.54944  0.56443  1.0000
  H   H137      1.0  0.45066  0.39773  0.90641  1.0000
  H   H138      1.0  0.47901  0.45605  0.94819  1.0000
  H   H139      1.0  0.40896  0.36884  0.87656  1.0000
  H   H140      1.0  0.34854  0.41625  0.80884  1.0000
  H   H141      1.0  0.37686  0.46713  0.82437  1.0000
  H   H142      1.0  0.49327  0.53024  0.63196  1.0000
  H   H143      1.0  0.49423  0.58081  0.80151  1.0000
  H   H144      1.0  0.53432  0.54527  0.73903  1.0000
  H   H145      1.0  0.53808  0.59882  0.78013  1.0000
  H   H146      1.0  0.49478  0.45636  0.72437  1.0000
  H   H147      1.0  0.51354  0.40578  0.59761  1.0000
  H   H148      1.0  0.51822  0.39378  0.74184  1.0000
  H   H149      1.0  0.51109  0.45690  0.87024  1.0000
  H   H150      1.0  0.32113  0.63172  0.63951  1.0000
  H   H151      1.0  0.28952  0.69265  0.72197  1.0000
  H   H152      1.0  0.34163  0.76722  0.70345  1.0000
  H   H153      1.0  0.37266  0.70637  0.62063  1.0000
  H   H154      1.0  0.33143  0.34747  0.72561  1.0000
  H   H155      1.0  0.30468  0.30075  0.73208  1.0000
  H   H156      1.0  0.27449  0.75288  0.75173  1.0000
  H   H157      1.0  0.29447  0.27124  0.80727  1.0000
  H   H158      1.0  0.71624  0.63114  0.77345  1.0000
  H   H159      1.0  0.72590  0.39450  0.67944  1.0000
  H   H160      1.0  0.70052  0.71285  0.68182  1.0000
  H   H161      1.0  0.73785  0.73358  0.64204  1.0000
  H   H162      1.0  0.78092  0.64477  0.64210  1.0000
  H   H163      1.0  0.74369  0.62315  0.67845  1.0000
  H   H164      1.0  0.31338  0.22970  0.00225  1.0000
  H   H165      1.0  0.28002  0.18442  0.98613  1.0000
  H   H166      1.0  0.24265  0.16509  0.70555  1.0000
  H   H167      1.0  0.27610  0.20943  0.71957  1.0000
  H   H168      1.0  0.21960  0.91991  0.75996  1.0000
  H   H169      1.0  0.24056  0.17953  0.51958  1.0000
  H   H170      1.0  0.77683  0.22027  0.64117  1.0000
  H   H171      1.0  0.77118  0.76896  0.69290  1.0000
  H   H172      1.0  0.04615  0.88885  0.75646  1.0000
  H   H173      1.0  0.07700  0.86696  0.82432  1.0000
  H   H174      1.0  0.11233  0.88836  0.95742  1.0000
  H   H175      1.0  0.14359  0.03186  0.72284  1.0000
  H   H176      1.0  0.00526  0.97470  0.82785  1.0000
  H   H177      1.0  0.01622  0.92600  0.79581  1.0000
  H   H178      1.0  0.03969  0.89568  0.60510  1.0000
  H   H179      1.0  0.02581  0.94315  0.63739  1.0000
  H   H180      1.0  0.17805  0.98015  0.64532  1.0000
  H   H181      1.0  0.20835  0.95854  0.71622  1.0000
  H   H182      1.0  0.15031  0.88862  0.72563  1.0000
  H   H183      1.0  0.12049  0.91017  0.65448  1.0000
  H   H184      1.0  0.91708  0.04872  0.66261  1.0000
  H   H185      1.0  0.88194  0.09245  0.80416  1.0000
  H   H186      1.0  0.85338  0.05697  0.98452  1.0000
  H   H187      1.0  0.88332  0.99094  0.87118  1.0000
  H   H188      1.0  0.81689  0.08376  0.95947  1.0000
  H   H189      1.0  0.87471  0.16757  0.00282  1.0000
  H   H190      1.0  0.07681  0.16845  0.64205  1.0000
  H   H191      1.0  0.04108  0.14554  0.68460  1.0000
  H   H192      1.0  0.11850  0.15216  0.55846  1.0000
  H   H193      1.0  0.15653  0.02734  0.90090  1.0000
  H   H194      1.0  0.11961  0.99758  0.91516  1.0000
  H   H195      1.0  0.02430  0.12786  0.79427  1.0000
  H   H196      1.0  0.01087  0.11223  0.66295  1.0000
  H   H197      1.0  0.18695  0.08540  0.52501  1.0000
  H   H198      1.0  0.22501  0.11491  0.01470  1.0000
  H   H199      1.0  0.18305  0.15739  0.87277  1.0000
  H   H200      1.0  0.14439  0.13249  0.89696  1.0000
  H   H201      1.0  0.93872  0.85318  0.76371  1.0000
  H   H202      1.0  0.96987  0.91208  0.81605  1.0000
  H   H203      1.0  0.89545  0.82695  0.72201  1.0000
  H   H204      1.0  0.84396  0.86398  0.59228  1.0000
  H   H205      1.0  0.87575  0.91409  0.61931  1.0000
  H   H206      1.0  0.98309  0.10187  0.76987  1.0000
  H   H207      1.0  0.00222  0.05387  0.71465  1.0000
  H   H208      1.0  0.94864  0.98544  0.55416  1.0000
  C   C1        1.0  0.59727  0.41250  0.39991  1.0000
  C   C2        1.0  0.59678  0.46015  0.45454  1.0000
  C   C3        1.0  0.57696  0.47281  0.42232  1.0000
  C   C4        1.0  0.55915  0.43764  0.33337  1.0000
  C   C5        1.0  0.56010  0.39011  0.27613  1.0000
  C   C6        1.0  0.57869  0.37804  0.30963  1.0000
  C   C7        1.0  0.61611  0.40098  0.43756  1.0000
  C   C8        1.0  0.63728  0.44120  0.02632  1.0000
  C   C9        1.0  0.63560  0.48724  0.07468  1.0000
  C   C10       1.0  0.61638  0.49744  0.03884  1.0000
  C   C11       1.0  0.57455  0.52264  0.48327  1.0000
  C   C12       1.0  0.59189  0.54164  0.46022  1.0000
  C   C13       1.0  0.58909  0.59007  0.52110  1.0000
  C   C14       1.0  0.56637  0.61175  0.06646  1.0000
  C   C15       1.0  0.55006  0.59333  0.09022  1.0000
  C   C16       1.0  0.55446  0.54753  0.03993  1.0000
  C   C17       1.0  0.60654  0.60862  0.49797  1.0000
  C   C18       1.0  0.62688  0.58166  0.42182  1.0000
  C   C19       1.0  0.62995  0.53447  0.36581  1.0000
  C   C20       1.0  0.61267  0.51451  0.38098  1.0000
  C   C21       1.0  0.39824  0.57123  0.39112  1.0000
  C   C22       1.0  0.40238  0.54802  0.42753  1.0000
  C   C23       1.0  0.41991  0.50940  0.35942  1.0000
  C   C24       1.0  0.43229  0.49495  0.25730  1.0000
  C   C25       1.0  0.42844  0.51884  0.22409  1.0000
  C   C26       1.0  0.41180  0.55596  0.28906  1.0000
  C   C27       1.0  0.38093  0.60914  0.45778  1.0000
  C   C28       1.0  0.36582  0.62260  0.05497  1.0000
  C   C29       1.0  0.37020  0.59931  0.09006  1.0000
  C   C30       1.0  0.38751  0.56298  0.02815  1.0000
  C   C31       1.0  0.42642  0.48531  0.39519  1.0000
  C   C32       1.0  0.40934  0.45353  0.37648  1.0000
  C   C33       1.0  0.41796  0.42288  0.38546  1.0000
  C   C34       1.0  0.44350  0.42284  0.40672  1.0000
  C   C35       1.0  0.45943  0.45515  0.43119  1.0000
  C   C36       1.0  0.45089  0.48757  0.42974  1.0000
  C   C37       1.0  0.40100  0.39348  0.37367  1.0000
  C   C38       1.0  0.37584  0.39315  0.35425  1.0000
  C   C39       1.0  0.36773  0.42049  0.33480  1.0000
  C   C40       1.0  0.38392  0.44915  0.34413  1.0000
  C   C41       1.0  0.50223  0.56489  0.19900  1.0000
  C   C42       1.0  0.53010  0.56009  0.19164  1.0000
  C   C43       1.0  0.50608  0.40536  0.15423  1.0000
  C   C44       1.0  0.51613  0.43553  0.28763  1.0000
  C   C45       1.0  0.65611  0.43141  0.07358  1.0000
  C   C46       1.0  0.34742  0.66146  0.11927  1.0000
  C   C47       1.0  0.32374  0.65853  0.14988  1.0000
  C   C48       1.0  0.30604  0.69342  0.19868  1.0000
  C   C49       1.0  0.31129  0.73360  0.22267  1.0000
  C   C50       1.0  0.33550  0.73754  0.19756  1.0000
  C   C51       1.0  0.35291  0.70210  0.14631  1.0000
  C   C52       1.0  0.64928  0.40526  0.09697  1.0000
  C   C53       1.0  0.66627  0.39435  0.13987  1.0000
  C   C54       1.0  0.69136  0.40836  0.15904  1.0000
  C   C55       1.0  0.69807  0.43551  0.13801  1.0000
  C   C56       1.0  0.68082  0.44744  0.09804  1.0000
  C   C57       1.0  0.29110  0.76562  0.26162  1.0000
  C   C58       1.0  0.29092  0.80895  0.30179  1.0000
  C   C59       1.0  0.31339  0.83293  0.32482  1.0000
  C   C60       1.0  0.31074  0.28089  0.35258  1.0000
  C   C61       1.0  0.31433  0.25751  0.38417  1.0000
  C   C62       1.0  0.33736  0.26073  0.43561  1.0000
  C   C63       1.0  0.69721  0.63807  0.27486  1.0000
  C   C64       1.0  0.69592  0.65590  0.22716  1.0000
  C   C65       1.0  0.67311  0.66972  0.21496  1.0000
  C   C66       1.0  0.71081  0.39420  0.19039  1.0000
  C   C67       1.0  0.71011  0.36943  0.21898  1.0000
  C   C68       1.0  0.68742  0.35614  0.23297  1.0000
  C   C69       1.0  0.73257  0.35122  0.22739  1.0000
  C   C70       1.0  0.73056  0.31812  0.23211  1.0000
  C   C71       1.0  0.75122  0.29530  0.22218  1.0000
  C   C72       1.0  0.77496  0.30449  0.20722  1.0000
  C   C73       1.0  0.77718  0.34058  0.21329  1.0000
  C   C74       1.0  0.75655  0.36330  0.22299  1.0000
  C   C75       1.0  0.20202  0.88459  0.28910  1.0000
  C   C76       1.0  0.20274  0.90778  0.25586  1.0000
  C   C77       1.0  0.17922  0.86973  0.29769  1.0000
  C   C78       1.0  0.23691  0.14575  0.33376  1.0000
  C   C79       1.0  0.22923  0.15467  0.43258  1.0000
  C   C80       1.0  0.22495  0.10839  0.21207  1.0000
  C   C81       1.0  0.79686  0.27630  0.17891  1.0000
  C   C82       1.0  0.79529  0.23196  0.13315  1.0000
  C   C83       1.0  0.82001  0.29704  0.19469  1.0000
  C   C84       1.0  0.78521  0.70213  0.13031  1.0000
  C   C85       1.0  0.78698  0.74345  0.16145  1.0000
  C   C86       1.0  0.80605  0.67233  0.09006  1.0000
  C   C87       1.0  0.09222  0.93907  0.47612  1.0000
  C   C88       1.0  0.09407  0.98645  0.02556  1.0000
  C   C89       1.0  0.07556  0.99736  0.48221  1.0000
  C   C90       1.0  0.05807  0.96198  0.38923  1.0000
  C   C91       1.0  0.05753  0.91555  0.33882  1.0000
  C   C92       1.0  0.07416  0.90459  0.38194  1.0000
  C   C93       1.0  0.11230  0.92534  0.00438  1.0000
  C   C94       1.0  0.13065  0.95790  0.09354  1.0000
  C   C95       1.0  0.13065  0.00539  0.14951  1.0000
  C   C96       1.0  0.11261  0.01962  0.11977  1.0000
  C   C97       1.0  0.01897  0.94826  0.28991  1.0000
  C   C98       1.0  0.01841  0.91802  0.14936  1.0000
  C   C99       1.0  0.14912  0.94429  0.13257  1.0000
  C   C100      1.0  0.17408  0.95887  0.15537  1.0000
  C   C101      1.0  0.19090  0.94658  0.19576  1.0000
  C   C102      1.0  0.18360  0.91999  0.21789  1.0000
  C   C103      1.0  0.15842  0.90591  0.19610  1.0000
  C   C104      1.0  0.14184  0.91748  0.15338  1.0000
  C   C105      1.0  0.89913  0.03155  0.26173  1.0000
  C   C106      1.0  0.89941  0.00264  0.28252  1.0000
  C   C107      1.0  0.91645  0.96368  0.21479  1.0000
  C   C108      1.0  0.93250  0.95431  0.12879  1.0000
  C   C109      1.0  0.93252  0.98335  0.11006  1.0000
  C   C110      1.0  0.91606  0.02098  0.17509  1.0000
  C   C111      1.0  0.88248  0.07061  0.33001  1.0000
  C   C112      1.0  0.86623  0.08208  0.41740  1.0000
  C   C113      1.0  0.86683  0.05368  0.43877  1.0000
  C   C114      1.0  0.88305  0.01573  0.37488  1.0000
  C   C115      1.0  0.80680  0.15401  0.04696  1.0000
  C   C116      1.0  0.81416  0.19687  0.08641  1.0000
  C   C117      1.0  0.83924  0.20092  0.07042  1.0000
  C   C118      1.0  0.07682  0.04718  0.03514  1.0000
  C   C119      1.0  0.09768  0.06169  0.01344  1.0000
  C   C120      1.0  0.09772  0.10725  0.05650  1.0000
  C   C121      1.0  0.07676  0.13730  0.12098  1.0000
  C   C122      1.0  0.05694  0.12389  0.14505  1.0000
  C   C123      1.0  0.05684  0.07889  0.10228  1.0000
  C   C124      1.0  0.11883  0.12178  0.03741  1.0000
  C   C125      1.0  0.14003  0.09003  0.47393  1.0000
  C   C126      1.0  0.13979  0.04570  0.43499  1.0000
  C   C127      1.0  0.11894  0.02958  0.44506  1.0000
  C   C128      1.0  0.99630  0.06985  0.19050  1.0000
  C   C129      1.0  0.01773  0.09700  0.20183  1.0000
  C   C130      1.0  0.16263  0.10522  0.45808  1.0000
  C   C131      1.0  0.18576  0.10057  0.49011  1.0000
  C   C132      1.0  0.20729  0.11684  0.48264  1.0000
  C   C133      1.0  0.20670  0.13575  0.43535  1.0000
  C   C134      1.0  0.18367  0.13838  0.39752  1.0000
  C   C135      1.0  0.16198  0.12419  0.41098  1.0000
  C   C136      1.0  0.92001  0.93520  0.23954  1.0000
  C   C137      1.0  0.90178  0.90283  0.21099  1.0000
  C   C138      1.0  0.90767  0.87429  0.23030  1.0000
  C   C139      1.0  0.93220  0.87530  0.26559  1.0000
  C   C140      1.0  0.94965  0.90612  0.29084  1.0000
  C   C141      1.0  0.94304  0.93818  0.28611  1.0000
  C   C142      1.0  0.88896  0.84574  0.21367  1.0000
  C   C143      1.0  0.86500  0.84391  0.17724  1.0000
  C   C144      1.0  0.85981  0.86978  0.15016  1.0000
  C   C145      1.0  0.87762  0.89789  0.16531  1.0000
  C   C146      1.0  0.97483  0.05520  0.02874  1.0000
  C   C147      1.0  0.95293  0.02247  0.43274  1.0000
  C   C148      1.0  0.98734  0.87731  0.98695  1.0000
  C   C149      1.0  0.97159  0.91757  0.02670  1.0000
  C   C150      1.0  0.44270  0.41043  0.11642  1.0000
  C   C151      1.0  0.46561  0.37916  0.05446  1.0000
  C   C152      1.0  0.46950  0.59653  0.17126  1.0000
  C   C153      1.0  0.46453  0.56686  0.03279  1.0000
  C   C154      1.0  0.60059  0.41423  0.89362  1.0000
  C   C155      1.0  0.59826  0.46152  0.94726  1.0000
  C   C156      1.0  0.57811  0.47085  0.90773  1.0000
  C   C157      1.0  0.56135  0.43342  0.81631  1.0000
  C   C158      1.0  0.56414  0.38641  0.76098  1.0000
  C   C159      1.0  0.58328  0.37713  0.79922  1.0000
  C   C160      1.0  0.61993  0.40547  0.93603  1.0000
  C   C161      1.0  0.63484  0.43394  0.52213  1.0000
  C   C162      1.0  0.63511  0.47985  0.56930  1.0000
  C   C163      1.0  0.61633  0.49310  0.53983  1.0000
  C   C164      1.0  0.57464  0.51946  0.96259  1.0000
  C   C165      1.0  0.59180  0.53864  0.93929  1.0000
  C   C166      1.0  0.58778  0.58558  0.99247  1.0000
  C   C167      1.0  0.56871  0.61795  0.60263  1.0000
  C   C168      1.0  0.55202  0.59942  0.62478  1.0000
  C   C169      1.0  0.55511  0.55193  0.56618  1.0000
  C   C170      1.0  0.60527  0.60461  0.97084  1.0000
  C   C171      1.0  0.62685  0.57998  0.90454  1.0000
  C   C172      1.0  0.63108  0.53450  0.85709  1.0000
  C   C173      1.0  0.61378  0.51372  0.86970  1.0000
  C   C174      1.0  0.39703  0.57003  0.88927  1.0000
  C   C175      1.0  0.40123  0.54632  0.92429  1.0000
  C   C176      1.0  0.41916  0.50832  0.85699  1.0000
  C   C177      1.0  0.43170  0.49465  0.75630  1.0000
  C   C178      1.0  0.42772  0.51883  0.72407  1.0000
  C   C179      1.0  0.41087  0.55567  0.78898  1.0000
  C   C180      1.0  0.37951  0.60767  0.95606  1.0000
  C   C181      1.0  0.36753  0.62509  0.55861  1.0000
  C   C182      1.0  0.37191  0.60246  0.59558  1.0000
  C   C183      1.0  0.38897  0.56573  0.53335  1.0000
  C   C184      1.0  0.42612  0.48428  0.89250  1.0000
  C   C185      1.0  0.40932  0.45208  0.87339  1.0000
  C   C186      1.0  0.41823  0.42174  0.88294  1.0000
  C   C187      1.0  0.44379  0.42227  0.90476  1.0000
  C   C188      1.0  0.45950  0.45454  0.92813  1.0000
  C   C189      1.0  0.45075  0.48668  0.92606  1.0000
  C   C190      1.0  0.40157  0.39183  0.87045  1.0000
  C   C191      1.0  0.37639  0.39075  0.84997  1.0000
  C   C192      1.0  0.36802  0.41765  0.82955  1.0000
  C   C193      1.0  0.38393  0.44676  0.83944  1.0000
  C   C194      1.0  0.50135  0.56666  0.71288  1.0000
  C   C195      1.0  0.52923  0.56276  0.71177  1.0000
  C   C196      1.0  0.50224  0.42159  0.67939  1.0000
  C   C197      1.0  0.51815  0.42818  0.77281  1.0000
  C   C198      1.0  0.34920  0.66386  0.62138  1.0000
  C   C199      1.0  0.35955  0.36313  0.85225  1.0000
  C   C200      1.0  0.32571  0.66172  0.65500  1.0000
  C   C201      1.0  0.30787  0.69600  0.70095  1.0000
  C   C202      1.0  0.31277  0.73471  0.71847  1.0000
  C   C203      1.0  0.33680  0.73791  0.69016  1.0000
  C   C204      1.0  0.35438  0.70315  0.64227  1.0000
  C   C205      1.0  0.33696  0.34310  0.78392  1.0000
  C   C206      1.0  0.32197  0.31630  0.78665  1.0000
  C   C207      1.0  0.32894  0.30736  0.85568  1.0000
  C   C208      1.0  0.35121  0.32891  0.92774  1.0000
  C   C209      1.0  0.36585  0.35634  0.92645  1.0000
  C   C210      1.0  0.29243  0.76615  0.75579  1.0000
  C   C211      1.0  0.29189  0.80797  0.78881  1.0000
  C   C212      1.0  0.31404  0.83032  0.80156  1.0000
  C   C213      1.0  0.31263  0.27729  0.84836  1.0000
  C   C214      1.0  0.31626  0.25491  0.88279  1.0000
  C   C215      1.0  0.33912  0.25872  0.93616  1.0000
  C   C216      1.0  0.29676  0.22541  0.86725  1.0000
  C   C217      1.0  0.69768  0.63941  0.76632  1.0000
  C   C218      1.0  0.69668  0.65963  0.72486  1.0000
  C   C219      1.0  0.67404  0.67576  0.71888  1.0000
  C   C220      1.0  0.71910  0.66863  0.69099  1.0000
  C   C221      1.0  0.70752  0.38594  0.68683  1.0000
  C   C222      1.0  0.70723  0.36262  0.71965  1.0000
  C   C223      1.0  0.68475  0.34854  0.73267  1.0000
  C   C224      1.0  0.71823  0.69865  0.67579  1.0000
  C   C225      1.0  0.73950  0.71052  0.65374  1.0000
  C   C226      1.0  0.76276  0.69290  0.64554  1.0000
  C   C227      1.0  0.76338  0.66047  0.65278  1.0000
  C   C228      1.0  0.74213  0.64856  0.67456  1.0000
  C   C229      1.0  0.29761  0.21650  0.93906  1.0000
  C   C230      1.0  0.27869  0.19105  0.93027  1.0000
  C   C231      1.0  0.25826  0.17298  0.84820  1.0000
  C   C232      1.0  0.25801  0.17978  0.77185  1.0000
  C   C233      1.0  0.27680  0.20544  0.78124  1.0000
  C   C234      1.0  0.20143  0.88417  0.78998  1.0000
  C   C235      1.0  0.20140  0.90888  0.76113  1.0000
  C   C236      1.0  0.17908  0.86770  0.79660  1.0000
  C   C237      1.0  0.23711  0.14826  0.84153  1.0000
  C   C238      1.0  0.22955  0.15701  0.94022  1.0000
  C   C239      1.0  0.22462  0.11179  0.72107  1.0000
  C   C240      1.0  0.79606  0.27729  0.69377  1.0000
  C   C241      1.0  0.79525  0.23298  0.64829  1.0000
  C   C242      1.0  0.81885  0.29878  0.70888  1.0000
  C   C243      1.0  0.78599  0.70739  0.63097  1.0000
  C   C244      1.0  0.78806  0.74797  0.65891  1.0000
  C   C245      1.0  0.80660  0.67697  0.58952  1.0000
  C   C246      1.0  0.09419  0.93822  0.96745  1.0000
  C   C247      1.0  0.09293  0.98609  0.52712  1.0000
  C   C248      1.0  0.07631  0.99899  0.98517  1.0000
  C   C249      1.0  0.05892  0.96382  0.89058  1.0000
  C   C250      1.0  0.05914  0.91620  0.83320  1.0000
  C   C251      1.0  0.07643  0.90385  0.87079  1.0000
  C   C252      1.0  0.10991  0.92714  0.51681  1.0000
  C   C253      1.0  0.12859  0.95946  0.60331  1.0000
  C   C254      1.0  0.12923  0.00600  0.65377  1.0000
  C   C255      1.0  0.11168  0.01933  0.61972  1.0000
  C   C256      1.0  0.02043  0.94898  0.78479  1.0000
  C   C257      1.0  0.02316  0.91860  0.64483  1.0000
  C   C258      1.0  0.14704  0.94611  0.64296  1.0000
  C   C259      1.0  0.17203  0.96007  0.66276  1.0000
  C   C260      1.0  0.18904  0.94783  0.70254  1.0000
  C   C261      1.0  0.18194  0.92155  0.72582  1.0000
  C   C262      1.0  0.15673  0.90816  0.70728  1.0000
  C   C263      1.0  0.13989  0.91993  0.66584  1.0000
  C   C264      1.0  0.89972  0.03280  0.75316  1.0000
  C   C265      1.0  0.90018  0.00240  0.76922  1.0000
  C   C266      1.0  0.91829  0.96517  0.70430  1.0000
  C   C267      1.0  0.93533  0.95942  0.62689  1.0000
  C   C268      1.0  0.93501  0.98989  0.61274  1.0000
  C   C269      1.0  0.91742  0.02540  0.67381  1.0000
  C   C270      1.0  0.88230  0.07056  0.81990  1.0000
  C   C271      1.0  0.86549  0.07977  0.90238  1.0000
  C   C272      1.0  0.86610  0.04971  0.91848  1.0000
  C   C273      1.0  0.88298  0.01273  0.85525  1.0000
  C   C274      1.0  0.84797  0.12007  0.97061  1.0000
  C   C275      1.0  0.82330  0.11668  0.99147  1.0000
  C   C276      1.0  0.85552  0.16337  0.01363  1.0000
  C   C277      1.0  0.07626  0.04470  0.52781  1.0000
  C   C278      1.0  0.09733  0.05852  0.50503  1.0000
  C   C279      1.0  0.09763  0.10375  0.54646  1.0000
  C   C280      1.0  0.07674  0.13408  0.61001  1.0000
  C   C281      1.0  0.05664  0.12111  0.63378  1.0000
  C   C282      1.0  0.05624  0.07652  0.59289  1.0000
  C   C283      1.0  0.11882  0.11779  0.52647  1.0000
  C   C284      1.0  0.14011  0.09417  0.98454  1.0000
  C   C285      1.0  0.14006  0.04956  0.94416  1.0000
  C   C286      1.0  0.11929  0.03290  0.95280  1.0000
  C   C287      1.0  0.99576  0.07283  0.69355  1.0000
  C   C288      1.0  0.01731  0.09723  0.69546  1.0000
  C   C289      1.0  0.16268  0.10939  0.96890  1.0000
  C   C290      1.0  0.18580  0.10370  0.99857  1.0000
  C   C291      1.0  0.20741  0.11935  0.98983  1.0000
  C   C292      1.0  0.20684  0.13888  0.94420  1.0000
  C   C293      1.0  0.18381  0.14257  0.90873  1.0000
  C   C294      1.0  0.16207  0.12886  0.92315  1.0000
  C   C295      1.0  0.92185  0.93556  0.72563  1.0000
  C   C296      1.0  0.90393  0.90201  0.69340  1.0000
  C   C297      1.0  0.90974  0.87400  0.71455  1.0000
  C   C298      1.0  0.93408  0.87623  0.75392  1.0000
  C   C299      1.0  0.95117  0.90842  0.78345  1.0000
  C   C300      1.0  0.94442  0.94000  0.77749  1.0000
  C   C301      1.0  0.89099  0.84554  0.69829  1.0000
  C   C302      1.0  0.86708  0.84328  0.66061  1.0000
  C   C303      1.0  0.86216  0.86786  0.62947  1.0000
  C   C304      1.0  0.88000  0.89577  0.64393  1.0000
  C   C305      1.0  0.97463  0.05329  0.52336  1.0000
  C   C306      1.0  0.95319  0.02476  0.93733  1.0000
  C   C307      1.0  0.99224  0.88716  0.48738  1.0000
  C   C308      1.0  0.97662  0.93100  0.54828  1.0000
  C   C309      1.0  0.44259  0.41047  0.61574  1.0000
  C   C310      1.0  0.46532  0.37868  0.55137  1.0000
  C   C311      1.0  0.46936  0.59698  0.67775  1.0000
  C   C312      1.0  0.46491  0.56814  0.53958  1.0000
  N   N1        1.0  0.33124  0.85423  0.34561  1.0000
  N   N2        1.0  0.35595  0.26239  0.47806  1.0000
  N   N3        1.0  0.66953  0.34380  0.24518  1.0000
  N   N4        1.0  0.65496  0.68221  0.20432  1.0000
  N   N5        1.0  0.16102  0.85656  0.30541  1.0000
  N   N6        1.0  0.21688  0.07549  0.10895  1.0000
  N   N7        1.0  0.83852  0.31564  0.20937  1.0000
  N   N8        1.0  0.82290  0.65078  0.55512  1.0000
  N   N9        1.0  0.33153  0.85044  0.81389  1.0000
  N   N10       1.0  0.35753  0.26067  0.98012  1.0000
  N   N11       1.0  0.66697  0.33559  0.74362  1.0000
  N   N12       1.0  0.65598  0.69027  0.71428  1.0000
  N   N13       1.0  0.16126  0.85308  0.80219  1.0000
  N   N14       1.0  0.21616  0.07948  0.61856  1.0000
  N   N15       1.0  0.83708  0.31781  0.72281  1.0000
  N   N16       1.0  0.82259  0.64681  0.05744  1.0000
  O   O1        1.0  0.45003  0.45932  0.18722  1.0000
  O   O2        1.0  0.49520  0.59843  0.19774  1.0000
  O   O3        1.0  0.53849  0.52838  0.06264  1.0000
  O   O4        1.0  0.46900  0.51661  0.45141  1.0000
  O   O5        1.0  0.48146  0.39072  0.14827  1.0000
  O   O6        1.0  0.54125  0.45024  0.29883  1.0000
  O   O7        1.0  0.04234  0.97373  0.34588  1.0000
  O   O8        1.0  0.94779  0.91530  0.06304  1.0000
  O   O9        1.0  0.03749  0.06385  0.12339  1.0000
  O   O10       1.0  0.96069  0.97243  0.32921  1.0000
  O   O11       1.0  0.99633  0.88877  0.09349  1.0000
  O   O12       1.0  0.98380  0.03529  0.06933  1.0000
  O   O13       1.0  0.44977  0.45956  0.68758  1.0000
  O   O14       1.0  0.49497  0.59870  0.70570  1.0000
  O   O15       1.0  0.53867  0.53210  0.58511  1.0000
  O   O16       1.0  0.46883  0.51547  0.94626  1.0000
  O   O17       1.0  0.48255  0.38859  0.63851  1.0000
  O   O18       1.0  0.54276  0.44218  0.77402  1.0000
  O   O19       1.0  0.04261  0.97743  0.85378  1.0000
  O   O20       1.0  0.95198  0.92238  0.56344  1.0000
  O   O21       1.0  0.03642  0.06244  0.61485  1.0000
  O   O22       1.0  0.96150  0.97585  0.82632  1.0000
  O   O23       1.0  0.00144  0.88854  0.57646  1.0000
  O   O24       1.0  0.98254  0.03692  0.57461  1.0000
  C   C313      1.0  0.65609  0.38886  0.63537  1.0000
  C   C314      1.0  0.68181  0.39395  0.64573  1.0000
  C  Sn1       1.0  0.69376  0.41644  0.62069  1.0000
  C  Sn2       1.0  0.67964  0.43415  0.58465  1.0000
  C   C315      1.0  0.65392  0.42891  0.57464  1.0000
  C   C316      1.0  0.64215  0.40633  0.59988  1.0000
  H   H209      1.0  0.64698  0.37142  0.65497  1.0000
  O  Te1       1.0  0.71947  0.42121  0.63145  1.0000
  O  Te2       1.0  0.69111  0.45679  0.55911  1.0000
  H   H210      1.0  0.62223  0.40243  0.59193  1.0000
  Mg  Mg1       1.0  0.72661  0.45471  0.58678  1.0000
  C   C317      1.0  0.64649  0.63041  0.80397  1.0000
  C   C318      1.0  0.67230  0.63171  0.80947  1.0000
  C  Sn3       1.0  0.68500  0.61377  0.84628  1.0000
  C  Sn4       1.0  0.67154  0.59416  0.87810  1.0000
  C   C319      1.0  0.64572  0.59300  0.87222  1.0000
  C   C320      1.0  0.63320  0.61107  0.83529  1.0000
  H   H211      1.0  0.63680  0.64437  0.77534  1.0000
  O  Te3       1.0  0.71079  0.61536  0.85131  1.0000
  O  Te4       1.0  0.68377  0.57596  0.91516  1.0000
  H   H212      1.0  0.61321  0.61003  0.83097  1.0000
  Mg  Mg2       1.0  0.71908  0.58615  0.90740  1.0000
  C   C321      1.0  0.81424  0.83269  0.20578  1.0000
  C   C322      1.0  0.83954  0.82335  0.18391  1.0000
  C  Sn5       1.0  0.84920  0.78181  0.14216  1.0000
  C  Sn6       1.0  0.83319  0.74906  0.12198  1.0000
  C   C323      1.0  0.80791  0.75871  0.14405  1.0000
  C   C324      1.0  0.79844  0.80040  0.18586  1.0000
  H   H213      1.0  0.80691  0.86493  0.23806  1.0000
  O  Te5       1.0  0.87452  0.77304  0.12081  1.0000
  O  Te6       1.0  0.84236  0.70726  0.08023  1.0000
  H   H214      1.0  0.77885  0.80760  0.20271  1.0000
  Mg  Mg3       1.0  0.87822  0.71115  0.06437  1.0000
  C   C325      1.0  0.22602  0.82842  0.31258  1.0000
  C   C326      1.0  0.22371  0.86475  0.32088  1.0000
  C  Sn7       1.0  0.24476  0.88551  0.32434  1.0000
  C  Sn8       1.0  0.26852  0.86952  0.31936  1.0000
  C   C327      1.0  0.27063  0.83313  0.31098  1.0000
  C   C328      1.0  0.24945  0.81261  0.30761  1.0000
  H   H215      1.0  0.20963  0.81252  0.30990  1.0000
  O  Te7       1.0  0.24213  0.92179  0.33269  1.0000
  O  Te8       1.0  0.28986  0.88964  0.32262  1.0000
  H   H216      1.0  0.25124  0.78446  0.30110  1.0000
  Mg  Mg4       1.0  0.27672  0.93806  0.33434  1.0000
  C   C329      1.0  0.67663  0.59088  0.37821  1.0000
  C   C330      1.0  0.65115  0.59810  0.39632  1.0000
  C  Sn9       1.0  0.63852  0.61922  0.36833  1.0000
  C  Sn10      1.0  0.65169  0.63333  0.32133  1.0000
  C   C331      1.0  0.67718  0.62592  0.30346  1.0000
  C   C332      1.0  0.68964  0.60477  0.33180  1.0000
  H   H217      1.0  0.68627  0.57449  0.40007  1.0000
  O  Te9       1.0  0.61306  0.62619  0.38702  1.0000
  O  Te10      1.0  0.63953  0.65450  0.29254  1.0000
  H   H218      1.0  0.70937  0.59916  0.31770  1.0000
  Mg  Mg5       1.0  0.60472  0.65649  0.33403  1.0000
  C   C333      1.0  0.77204  0.34726  0.72205  1.0000
  C   C334      1.0  0.77463  0.31599  0.73155  1.0000
  C  Sn11      1.0  0.75377  0.29858  0.74052  1.0000
  C  Sn12      1.0  0.72989  0.31278  0.73991  1.0000
  C   C335      1.0  0.72750  0.34404  0.73028  1.0000
  C   C336      1.0  0.74849  0.36127  0.72140  1.0000
  H   H219      1.0  0.78828  0.36057  0.71511  1.0000
  O  Te11      1.0  0.75669  0.26738  0.74999  1.0000
  O  Te12      1.0  0.70873  0.29589  0.74871  1.0000
  H   H220      1.0  0.74648  0.38545  0.71396  1.0000
  Mg  Mg6       1.0  0.72226  0.25408  0.75986  1.0000
  C   C337      1.0  0.83972  0.75095  0.61188  1.0000
  C   C338      1.0  0.81529  0.76496  0.65193  1.0000
  C  Sn13      1.0  0.80600  0.80617  0.69089  1.0000
  C  Sn14      1.0  0.82149  0.83380  0.68958  1.0000
  C   C339      1.0  0.84589  0.81947  0.64926  1.0000
  C   C340      1.0  0.85500  0.77817  0.61051  1.0000
  H   H221      1.0  0.84677  0.71899  0.58183  1.0000
  O  Te13      1.0  0.78155  0.81966  0.73067  1.0000
  O  Te14      1.0  0.81267  0.87514  0.72798  1.0000
  H   H222      1.0  0.87391  0.76732  0.57943  1.0000
  Mg  Mg7       1.0  0.77804  0.87885  0.77418  1.0000
  C   C341      1.0  0.32184  0.32534  0.28013  1.0000
  C   C342      1.0  0.32517  0.31279  0.34201  1.0000
  C  Sn15      1.0  0.34581  0.32993  0.42110  1.0000
  C  Sn16      1.0  0.36341  0.36021  0.43841  1.0000
  C   C343      1.0  0.35990  0.37259  0.37615  1.0000
  C   C344      1.0  0.33919  0.35522  0.29719  1.0000
  H   H223      1.0  0.30581  0.31193  0.21909  1.0000
  O  Te15      1.0  0.34886  0.31702  0.48217  1.0000
  O  Te16      1.0  0.38420  0.37786  0.51696  1.0000
  H   H224      1.0  0.33661  0.36497  0.24935  1.0000
  Mg  Mg8       1.0  0.38020  0.35015  0.57959  1.0000
  C   C345      1.0  0.29436  0.21044  0.44260  1.0000
  C   C346      1.0  0.29667  0.22231  0.37885  1.0000
  C  Sn17      1.0  0.27793  0.20973  0.29592  1.0000
  C  Sn18      1.0  0.25651  0.18481  0.27668  1.0000
  C   C347      1.0  0.25437  0.17314  0.34098  1.0000
  C   C348      1.0  0.27323  0.18589  0.42372  1.0000
  H   H225      1.0  0.30895  0.22033  0.50667  1.0000
  O  Te17      1.0  0.28054  0.22185  0.23295  1.0000
  O  Te18      1.0  0.23750  0.17182  0.19436  1.0000
  H   H226      1.0  0.27143  0.17672  0.47313  1.0000
  Mg  Mg9       1.0  0.24962  0.19632  0.13032  1.0000
  C   C349      1.0  0.84585  0.19822  0.57278  1.0000
  C   C350      1.0  0.82054  0.19970  0.59225  1.0000
  C  Sn19      1.0  0.80903  0.16153  0.56204  1.0000
  C  Sn20      1.0  0.82270  0.12119  0.51144  1.0000
  C   C351      1.0  0.84801  0.12008  0.49239  1.0000
  C   C352      1.0  0.85980  0.15846  0.52292  1.0000
  H   H227      1.0  0.85462  0.22793  0.59645  1.0000
  O  Te19      1.0  0.78327  0.16357  0.58205  1.0000
  O  Te20      1.0  0.81166  0.08256  0.48046  1.0000
  H   H228      1.0  0.87940  0.15733  0.50790  1.0000
  Mg  Mg10      1.0  0.77663  0.10208  0.52493  1.0000
  C   C353      1.0  0.22693  0.83030  0.81762  1.0000
  C   C354      1.0  0.22398  0.86505  0.82038  1.0000
  C  Sn21      1.0  0.24456  0.88352  0.81317  1.0000
  C  Sn22      1.0  0.26851  0.86683  0.80299  1.0000
  C   C355      1.0  0.27125  0.83203  0.80021  1.0000
  C   C356      1.0  0.25054  0.81380  0.80752  1.0000
  H   H229      1.0  0.21090  0.81617  0.82321  1.0000
  O  Te21      1.0  0.24129  0.91824  0.81611  1.0000
  O  Te22      1.0  0.28939  0.88467  0.79558  1.0000
  H   H230      1.0  0.25282  0.78687  0.80530  1.0000
  Mg  Mg11      1.0  0.27544  0.93160  0.80332  1.0000
  C   C357      1.0  0.75959  0.64896  0.15840  1.0000
  C   C358      1.0  0.76236  0.67602  0.13562  1.0000
  C  Sn23      1.0  0.74204  0.69909  0.14305  1.0000
  C  Sn24      1.0  0.71852  0.69493  0.17392  1.0000
  C   C359      1.0  0.71595  0.66781  0.19663  1.0000
  C   C360      1.0  0.73641  0.64486  0.18890  1.0000
  H   H231      1.0  0.77542  0.63123  0.15250  1.0000
  O  Te23      1.0  0.74513  0.72596  0.11996  1.0000
  O  Te24      1.0  0.69790  0.71763  0.18202  1.0000
  H   H232      1.0  0.73426  0.62394  0.20663  1.0000
  Mg  Mg12      1.0  0.71146  0.75021  0.14237  1.0000
