data_image0
_chemical_formula_structural       H36C108N12O24SnCSn2CSnTe4Mg2SnCSn2CSnTe4Mg2SnCSn2CSnTe4Mg2SnCSn2CSnTe4Mg2SnCSn2CSnTe4Mg2SnCSn2CSnTe4Mg2SnCSn2CSnTe4Mg2SnCSn2CSnTe4Mg2SnCSn2CSnTe4Mg2SnCSn2CSnTe4Mg2SnCSn2CSnTe4Mg2SnCSn2CSnTe4Mg2
_chemical_formula_sum              "H36 C132 N12 O24 Sn48 Te48 Mg24"
_cell_length_a       37.1751
_cell_length_b       37.0061
_cell_length_c       7.99153
_cell_angle_alpha    90.3846
_cell_angle_beta     90.1735
_cell_angle_gamma    120.185

_symmetry_space_group_name_H-M    'P1'
_space_group_IT_number       1

loop_
  _space_group_symop_operation_xyz
  'x, y, z'

loop_
  _atom_site_type_symbol
  _atom_site_label
  _atom_site_symmetry_multiplicity
  _atom_site_fract_x
  _atom_site_fract_y
  _atom_site_fract_z
  _atom_site_occupancy
  H   H1        1.0  0.43919  0.03760  0.04943  1.0000
  H   H2        1.0  0.95910  0.39986  0.05419  1.0000
  H   H3        1.0  0.59640  0.56012  0.04526  1.0000
  H   H4        1.0  0.96119  0.56039  0.46199  1.0000
  H   H5        1.0  0.60163  0.04160  0.43827  1.0000
  H   H6        1.0  0.43664  0.39537  0.41611  1.0000
  H   H7        1.0  0.56204  0.96249  0.44920  1.0000
  H   H8        1.0  0.03985  0.59987  0.45957  1.0000
  H   H9        1.0  0.39659  0.43394  0.42358  1.0000
  H   H10       1.0  0.03777  0.43958  0.05057  1.0000
  H   H11       1.0  0.39993  0.95844  0.05650  1.0000
  H   H12       1.0  0.55645  0.59885  0.05470  1.0000
  H   H13       1.0  0.29492  0.70547  0.25650  1.0000
  H   H14       1.0  0.29218  0.58807  0.25088  1.0000
  H   H15       1.0  0.40935  0.70323  0.25851  1.0000
  H   H16       1.0  0.70462  0.29537  0.25905  1.0000
  H   H17       1.0  0.70542  0.41188  0.25418  1.0000
  H   H18       1.0  0.58927  0.29561  0.24780  1.0000
  H   H19       1.0  0.44372  0.03758  0.54220  1.0000
  H   H20       1.0  0.95917  0.40158  0.57888  1.0000
  H   H21       1.0  0.59855  0.55997  0.52649  1.0000
  H   H22       1.0  0.96298  0.56616  0.95630  1.0000
  H   H23       1.0  0.60308  0.04083  0.95466  1.0000
  H   H24       1.0  0.44171  0.40000  0.93076  1.0000
  H   H25       1.0  0.56373  0.96175  0.95988  1.0000
  H   H26       1.0  0.04163  0.60530  0.95147  1.0000
  H   H27       1.0  0.40203  0.43880  0.93513  1.0000
  H   H28       1.0  0.03786  0.44076  0.57303  1.0000
  H   H29       1.0  0.40375  0.95826  0.55240  1.0000
  H   H30       1.0  0.55867  0.59873  0.52886  1.0000
  H   H31       1.0  0.29628  0.70506  0.75541  1.0000
  H   H32       1.0  0.29361  0.58766  0.75251  1.0000
  H   H33       1.0  0.41068  0.70283  0.75713  1.0000
  H   H34       1.0  0.70630  0.29590  0.75848  1.0000
  H   H35       1.0  0.70544  0.41154  0.75284  1.0000
  H   H36       1.0  0.59016  0.29466  0.74203  1.0000
  C   C1        1.0  0.57513  0.09105  0.31866  1.0000
  C   C2        1.0  0.90988  0.48412  0.34021  1.0000
  C   C3        1.0  0.51294  0.42245  0.29843  1.0000
  C   C4        1.0  0.90894  0.42456  0.18492  1.0000
  C   C5        1.0  0.51541  0.08977  0.16694  1.0000
  C   C6        1.0  0.57164  0.48316  0.15256  1.0000
  C   C7        1.0  0.42538  0.90894  0.18598  1.0000
  C   C8        1.0  0.08912  0.51552  0.17658  1.0000
  C   C9        1.0  0.48048  0.57170  0.17187  1.0000
  C   C10       1.0  0.08977  0.57482  0.33263  1.0000
  C   C11       1.0  0.48528  0.91055  0.33715  1.0000
  C   C12       1.0  0.42136  0.51105  0.31547  1.0000
  C   C13       1.0  0.49293  0.04340  0.17236  1.0000
  C   C14       1.0  0.95513  0.44839  0.18406  1.0000
  C   C15       1.0  0.54807  0.50563  0.16270  1.0000
  C   C16       1.0  0.95596  0.50709  0.33375  1.0000
  C   C17       1.0  0.55217  0.04475  0.31607  1.0000
  C   C18       1.0  0.48979  0.44547  0.29967  1.0000
  C   C19       1.0  0.50828  0.95678  0.32613  1.0000
  C   C20       1.0  0.04365  0.55124  0.33015  1.0000
  C   C21       1.0  0.44509  0.48862  0.30775  1.0000
  C   C22       1.0  0.04295  0.49269  0.18015  1.0000
  C   C23       1.0  0.44909  0.95527  0.18160  1.0000
  C   C24       1.0  0.50360  0.54876  0.17238  1.0000
  C   C25       1.0  0.45296  0.02056  0.10503  1.0000
  C   C26       1.0  0.97682  0.43094  0.10995  1.0000
  C   C27       1.0  0.56545  0.54590  0.09934  1.0000
  C   C28       1.0  0.97834  0.54687  0.40490  1.0000
  C   C29       1.0  0.57032  0.02339  0.38649  1.0000
  C   C30       1.0  0.44997  0.42686  0.36688  1.0000
  C   C31       1.0  0.54840  0.97950  0.39201  1.0000
  C   C32       1.0  0.02204  0.56888  0.40307  1.0000
  C   C33       1.0  0.42770  0.44831  0.37089  1.0000
  C   C34       1.0  0.02057  0.45299  0.10808  1.0000
  C   C35       1.0  0.43113  0.97663  0.10940  1.0000
  C   C36       1.0  0.54329  0.56741  0.10436  1.0000
  C   C37       1.0  0.51178  0.02233  0.24581  1.0000
  C   C38       1.0  0.97722  0.48869  0.25760  1.0000
  C   C39       1.0  0.50796  0.48625  0.23397  1.0000
  C   C40       1.0  0.48960  0.97779  0.25075  1.0000
  C   C41       1.0  0.02161  0.51107  0.25563  1.0000
  C   C42       1.0  0.48539  0.50803  0.23830  1.0000
  C   C43       1.0  0.31130  0.68802  0.25616  1.0000
  C   C44       1.0  0.30980  0.62207  0.25236  1.0000
  C   C45       1.0  0.37552  0.68673  0.25674  1.0000
  C   C46       1.0  0.68795  0.31252  0.25739  1.0000
  C   C47       1.0  0.68833  0.37789  0.25423  1.0000
  C   C48       1.0  0.62312  0.31262  0.25024  1.0000
  C   C49       1.0  0.28831  0.64419  0.25400  1.0000
  C   C50       1.0  0.35342  0.64285  0.25301  1.0000
  C   C51       1.0  0.35497  0.70978  0.25859  1.0000
  C   C52       1.0  0.71044  0.35637  0.25876  1.0000
  C   C53       1.0  0.64467  0.35649  0.24883  1.0000
  C   C54       1.0  0.64432  0.29021  0.25354  1.0000
  C   C55       1.0  0.57780  0.09073  0.82691  1.0000
  C   C56       1.0  0.91100  0.48890  0.84404  1.0000
  C   C57       1.0  0.51615  0.42488  0.79956  1.0000
  C   C58       1.0  0.90986  0.42825  0.69710  1.0000
  C   C59       1.0  0.51843  0.08932  0.67120  1.0000
  C   C60       1.0  0.57467  0.48447  0.64843  1.0000
  C   C61       1.0  0.42774  0.90887  0.69139  1.0000
  C   C62       1.0  0.08958  0.51768  0.68517  1.0000
  C   C63       1.0  0.48368  0.57342  0.65677  1.0000
  C   C64       1.0  0.09126  0.57878  0.83034  1.0000
  C   C65       1.0  0.48725  0.90991  0.84381  1.0000
  C   C66       1.0  0.42570  0.51420  0.81237  1.0000
  C   C67       1.0  0.49595  0.04305  0.67643  1.0000
  C   C68       1.0  0.95594  0.45156  0.69867  1.0000
  C   C69       1.0  0.55081  0.50674  0.65202  1.0000
  C   C70       1.0  0.95718  0.51159  0.83777  1.0000
  C   C71       1.0  0.55437  0.04437  0.82725  1.0000
  C   C72       1.0  0.49335  0.44816  0.79934  1.0000
  C   C73       1.0  0.51029  0.95622  0.83510  1.0000
  C   C74       1.0  0.04506  0.55538  0.83133  1.0000
  C   C75       1.0  0.44924  0.49170  0.80553  1.0000
  C   C76       1.0  0.04354  0.49520  0.69260  1.0000
  C   C77       1.0  0.45178  0.95511  0.68647  1.0000
  C   C78       1.0  0.50653  0.55016  0.65665  1.0000
  C   C79       1.0  0.45663  0.02038  0.60336  1.0000
  C   C80       1.0  0.97724  0.43307  0.63048  1.0000
  C   C81       1.0  0.56783  0.54632  0.58223  1.0000
  C   C82       1.0  0.97993  0.55203  0.90280  1.0000
  C   C83       1.0  0.57205  0.02280  0.90011  1.0000
  C   C84       1.0  0.45445  0.43065  0.87396  1.0000
  C   C85       1.0  0.55016  0.97889  0.90341  1.0000
  C   C86       1.0  0.02369  0.57380  0.89989  1.0000
  C   C87       1.0  0.43242  0.45230  0.87661  1.0000
  C   C88       1.0  0.02091  0.45482  0.62726  1.0000
  C   C89       1.0  0.43455  0.97648  0.60865  1.0000
  C   C90       1.0  0.54573  0.56791  0.58420  1.0000
  C   C91       1.0  0.51423  0.02198  0.75454  1.0000
  C   C92       1.0  0.97824  0.49236  0.76716  1.0000
  C   C93       1.0  0.51110  0.48815  0.72649  1.0000
  C   C94       1.0  0.49193  0.97744  0.75887  1.0000
  C   C95       1.0  0.02260  0.51447  0.76390  1.0000
  C   C96       1.0  0.48876  0.51016  0.72940  1.0000
  C   C97       1.0  0.31268  0.68764  0.75506  1.0000
  C   C98       1.0  0.31112  0.62166  0.75337  1.0000
  C   C99       1.0  0.37685  0.68639  0.75609  1.0000
  C   C100      1.0  0.68925  0.31266  0.75555  1.0000
  C   C101      1.0  0.68875  0.37755  0.75255  1.0000
  C   C102      1.0  0.62400  0.31192  0.74628  1.0000
  C   C103      1.0  0.28961  0.64381  0.75354  1.0000
  C   C104      1.0  0.35475  0.64253  0.75428  1.0000
  C   C105      1.0  0.35632  0.70945  0.75661  1.0000
  C   C106      1.0  0.71131  0.35654  0.75686  1.0000
  C   C107      1.0  0.64513  0.35576  0.74664  1.0000
  C   C108      1.0  0.64560  0.28990  0.75014  1.0000
  N   N1        1.0  0.44519  0.88913  0.26298  1.0000
  N   N2        1.0  0.10994  0.55543  0.25480  1.0000
  N   N3        1.0  0.44049  0.55152  0.24497  1.0000
  N   N4        1.0  0.55538  0.11100  0.24245  1.0000
  N   N5        1.0  0.88891  0.44392  0.26449  1.0000
  N   N6        1.0  0.55298  0.44300  0.22506  1.0000
  N   N7        1.0  0.44744  0.88874  0.76687  1.0000
  N   N8        1.0  0.11104  0.55827  0.75763  1.0000
  N   N9        1.0  0.44428  0.55384  0.73501  1.0000
  N   N10       1.0  0.55805  0.11065  0.74984  1.0000
  N   N11       1.0  0.88986  0.44817  0.77248  1.0000
  N   N12       1.0  0.55561  0.44438  0.72188  1.0000
  O   O1        1.0  0.50021  0.10887  0.09978  1.0000
  O   O2        1.0  0.88898  0.38989  0.11819  1.0000
  O   O3        1.0  0.60571  0.49852  0.08408  1.0000
  O   O4        1.0  0.89067  0.49898  0.40921  1.0000
  O   O5        1.0  0.60958  0.11125  0.38525  1.0000
  O   O6        1.0  0.49838  0.38747  0.35923  1.0000
  O   O7        1.0  0.50005  0.89163  0.40889  1.0000
  O   O8        1.0  0.10955  0.60944  0.39973  1.0000
  O   O9        1.0  0.38701  0.49548  0.38170  1.0000
  O   O10       1.0  0.10844  0.50070  0.10817  1.0000
  O   O11       1.0  0.39027  0.88864  0.12503  1.0000
  O   O12       1.0  0.49522  0.60651  0.10919  1.0000
  O   O13       1.0  0.50357  0.10831  0.60061  1.0000
  O   O14       1.0  0.88991  0.39337  0.63236  1.0000
  O   O15       1.0  0.60923  0.49994  0.58424  1.0000
  O   O16       1.0  0.89197  0.50454  0.90869  1.0000
  O   O17       1.0  0.61250  0.11094  0.89159  1.0000
  O   O18       1.0  0.50174  0.39051  0.86589  1.0000
  O   O19       1.0  0.50182  0.89081  0.91580  1.0000
  O   O20       1.0  0.11141  0.61411  0.89118  1.0000
  O   O21       1.0  0.39195  0.49954  0.88295  1.0000
  O   O22       1.0  0.10819  0.50197  0.61749  1.0000
  O   O23       1.0  0.39244  0.88883  0.63203  1.0000
  O   O24       1.0  0.49822  0.60798  0.59195  1.0000
  C  Sn1       1.0  0.21046  0.57030  0.30488  1.0000
  C   C109      1.0  0.23739  0.60846  0.22945  1.0000
  C  Sn2       1.0  0.22267  0.63447  0.17463  1.0000
  C  Sn3       1.0  0.18015  0.62209  0.19573  1.0000
  C   C110      1.0  0.15324  0.58396  0.27114  1.0000
  C  Sn4       1.0  0.16794  0.55793  0.32597  1.0000
  O  Te1       1.0  0.22585  0.54480  0.35874  1.0000
  O  Te2       1.0  0.25019  0.67246  0.09954  1.0000
  O  Te3       1.0  0.16477  0.64763  0.14178  1.0000
  O  Te4       1.0  0.14045  0.51996  0.40105  1.0000
  Mg  Mg1       1.0  0.21441  0.69642  0.04686  1.0000
  Mg  Mg2       1.0  0.17619  0.49598  0.45385  1.0000
  C  Sn5       1.0  0.35494  0.56721  0.20503  1.0000
  C   C111      1.0  0.36757  0.60630  0.27759  1.0000
  C  Sn6       1.0  0.40893  0.63229  0.32729  1.0000
  C  Sn7       1.0  0.43830  0.61896  0.30390  1.0000
  C   C112      1.0  0.42567  0.57990  0.23136  1.0000
  C  Sn8       1.0  0.38431  0.55388  0.18164  1.0000
  O  Te5       1.0  0.31344  0.54173  0.15628  1.0000
  O  Te6       1.0  0.42082  0.67123  0.39960  1.0000
  O  Te7       1.0  0.47983  0.64448  0.35274  1.0000
  O  Te8       1.0  0.37243  0.51497  0.10936  1.0000
  Mg  Mg3       1.0  0.48092  0.69475  0.44544  1.0000
  Mg  Mg4       1.0  0.31233  0.49143  0.06339  1.0000
  C  Sn9       1.0  0.43006  0.78768  0.21584  1.0000
  C   C113      1.0  0.39175  0.76078  0.28953  1.0000
  C  Sn10      1.0  0.36610  0.77590  0.34455  1.0000
  C  Sn11      1.0  0.37900  0.81880  0.32545  1.0000
  C   C114      1.0  0.41728  0.84567  0.25178  1.0000
  C  Sn12      1.0  0.44295  0.83058  0.19674  1.0000
  O  Te9       1.0  0.45519  0.77188  0.16173  1.0000
  O  Te10      1.0  0.32795  0.74841  0.41788  1.0000
  O  Te11      1.0  0.35382  0.83458  0.37964  1.0000
  O  Te12      1.0  0.48108  0.85804  0.12342  1.0000
  Mg  Mg5       1.0  0.30462  0.78480  0.47169  1.0000
  Mg  Mg6       1.0  0.50442  0.82167  0.06949  1.0000
  C  Sn13      1.0  0.78866  0.41780  0.13290  1.0000
  C   C115      1.0  0.76119  0.38083  0.21469  1.0000
  C  Sn14      1.0  0.77552  0.36542  0.34177  1.0000
  C  Sn15      1.0  0.81821  0.38742  0.38816  1.0000
  C   C116      1.0  0.84566  0.42437  0.30642  1.0000
  C  Sn16      1.0  0.83135  0.43981  0.17929  1.0000
  O  Te13      1.0  0.77365  0.43264  0.00621  1.0000
  O  Te14      1.0  0.74747  0.32838  0.42169  1.0000
  O  Te15      1.0  0.83321  0.37255  0.51496  1.0000
  O  Te16      1.0  0.85938  0.47682  0.09942  1.0000
  Mg  Mg7       1.0  0.78288  0.32077  0.58674  1.0000
  Mg  Mg8       1.0  0.82584  0.48685  0.93441  1.0000
  C  Sn17      1.0  0.58266  0.37026  0.10334  1.0000
  C   C117      1.0  0.62016  0.38230  0.18690  1.0000
  C  Sn18      1.0  0.63502  0.41380  0.30907  1.0000
  C  Sn19      1.0  0.61192  0.43366  0.34865  1.0000
  C   C118      1.0  0.57444  0.42162  0.26514  1.0000
  C  Sn20      1.0  0.55956  0.39012  0.14291  1.0000
  O  Te17      1.0  0.57024  0.34107  0.98164  1.0000
  O  Te18      1.0  0.67259  0.42531  0.39088  1.0000
  O  Te19      1.0  0.62622  0.46525  0.47045  1.0000
  O  Te20      1.0  0.52201  0.37860  0.06116  1.0000
  Mg  Mg9       1.0  0.67909  0.46995  0.54731  1.0000
  Mg  Mg10      1.0  0.51732  0.33633  0.90478  1.0000
  C  Sn21      1.0  0.62859  0.18735  0.19835  1.0000
  C   C119      1.0  0.59019  0.16003  0.27042  1.0000
  C  Sn22      1.0  0.56413  0.17469  0.32510  1.0000
  C  Sn23      1.0  0.57670  0.21754  0.30729  1.0000
  C   C120      1.0  0.61508  0.24483  0.23523  1.0000
  C  Sn24      1.0  0.64116  0.23020  0.18054  1.0000
  O  Te21      1.0  0.65414  0.17201  0.14456  1.0000
  O  Te22      1.0  0.52590  0.14678  0.39682  1.0000
  O  Te23      1.0  0.55112  0.23286  0.36116  1.0000
  O  Te24      1.0  0.67937  0.25808  0.10884  1.0000
  Mg  Mg11      1.0  0.50196  0.18263  0.45081  1.0000
  Mg  Mg12      1.0  0.70332  0.22226  0.05472  1.0000
  C  Sn25      1.0  0.21066  0.57003  0.79462  1.0000
  C   C121      1.0  0.23831  0.60875  0.72496  1.0000
  C  Sn26      1.0  0.22462  0.63620  0.67869  1.0000
  C  Sn27      1.0  0.18241  0.62471  0.70264  1.0000
  C   C122      1.0  0.15479  0.58602  0.77228  1.0000
  C  Sn28      1.0  0.16845  0.55854  0.81857  1.0000
  O  Te25      1.0  0.22503  0.54308  0.83997  1.0000
  O  Te26      1.0  0.25284  0.67474  0.60923  1.0000
  O  Te27      1.0  0.16806  0.65170  0.65721  1.0000
  O  Te28      1.0  0.14026  0.52003  0.88801  1.0000
  Mg  Mg13      1.0  0.21838  0.70073  0.56753  1.0000
  Mg  Mg14      1.0  0.17469  0.49402  0.92983  1.0000
  C  Sn29      1.0  0.38218  0.56804  0.61272  1.0000
  C   C123      1.0  0.41985  0.57856  0.69164  1.0000
  C  Sn30      1.0  0.43549  0.60844  0.82021  1.0000
  C  Sn31      1.0  0.41301  0.62821  0.87104  1.0000
  C   C124      1.0  0.37537  0.61769  0.79216  1.0000
  C  Sn32      1.0  0.35970  0.58781  0.66355  1.0000
  O  Te29      1.0  0.36713  0.53807  0.48448  1.0000
  O  Te30      1.0  0.47322  0.61844  0.89719  1.0000
  O  Te31      1.0  0.42809  0.65819  0.99939  1.0000
  O  Te32      1.0  0.32199  0.57780  0.58661  1.0000
  Mg  Mg15      1.0  0.47903  0.65883  0.06592  1.0000
  Mg  Mg16      1.0  0.31430  0.53502  0.41794  1.0000
  C  Sn33      1.0  0.43187  0.78721  0.71981  1.0000
  C   C125      1.0  0.39287  0.76031  0.78822  1.0000
  C  Sn34      1.0  0.36686  0.77549  0.83752  1.0000
  C  Sn35      1.0  0.38010  0.81846  0.81793  1.0000
  C   C126      1.0  0.41908  0.84533  0.74954  1.0000
  C  Sn36      1.0  0.44512  0.83017  0.70023  1.0000
  O  Te33      1.0  0.45736  0.77134  0.67139  1.0000
  O  Te34      1.0  0.32801  0.74800  0.90564  1.0000
  O  Te35      1.0  0.35458  0.83431  0.86643  1.0000
  O  Te36      1.0  0.48394  0.85764  0.63212  1.0000
  Mg  Mg17      1.0  0.30443  0.78450  0.95273  1.0000
  Mg  Mg18      1.0  0.50753  0.82117  0.58491  1.0000
  C  Sn37      1.0  0.81426  0.37378  0.81218  1.0000
  C   C127      1.0  0.84116  0.41283  0.74326  1.0000
  C  Sn38      1.0  0.82612  0.43883  0.69191  1.0000
  C  Sn39      1.0  0.78329  0.42552  0.70990  1.0000
  C   C128      1.0  0.75642  0.38649  0.77880  1.0000
  C  Sn40      1.0  0.77143  0.36047  0.83017  1.0000
  O  Te37      1.0  0.82997  0.34831  0.86268  1.0000
  O  Te38      1.0  0.85361  0.47773  0.62331  1.0000
  O  Te39      1.0  0.76759  0.45103  0.65932  1.0000
  O  Te40      1.0  0.74396  0.32159  0.89876  1.0000
  Mg  Mg19      1.0  0.81734  0.50126  0.57317  1.0000
  Mg  Mg20      1.0  0.78021  0.29804  0.94902  1.0000
  C  Sn41      1.0  0.62944  0.44328  0.77795  1.0000
  C   C129      1.0  0.59127  0.43105  0.69986  1.0000
  C  Sn42      1.0  0.56543  0.38959  0.64871  1.0000
  C  Sn43      1.0  0.57800  0.35971  0.67628  1.0000
  C   C130      1.0  0.61615  0.37193  0.75435  1.0000
  C  Sn44      1.0  0.64201  0.41340  0.80552  1.0000
  O  Te41      1.0  0.65476  0.48490  0.82805  1.0000
  O  Te42      1.0  0.52742  0.37811  0.57084  1.0000
  O  Te43      1.0  0.55264  0.31806  0.62610  1.0000
  O  Te44      1.0  0.67999  0.42487  0.88336  1.0000
  Mg  Mg21      1.0  0.50374  0.31765  0.52524  1.0000
  Mg  Mg22      1.0  0.70369  0.48531  0.92910  1.0000
  C  Sn45      1.0  0.63166  0.21192  0.62191  1.0000
  C   C131      1.0  0.62016  0.23873  0.69763  1.0000
  C  Sn46      1.0  0.58885  0.22369  0.81792  1.0000
  C  Sn47      1.0  0.56862  0.18097  0.86357  1.0000
  C   C132      1.0  0.58013  0.15419  0.78790  1.0000
  C  Sn48      1.0  0.61144  0.16920  0.66756  1.0000
  O  Te45      1.0  0.66305  0.22764  0.50197  1.0000
  O  Te46      1.0  0.57787  0.25108  0.89184  1.0000
  O  Te47      1.0  0.53722  0.16527  0.98362  1.0000
  O  Te48      1.0  0.62242  0.14184  0.59369  1.0000
  Mg  Mg23      1.0  0.53144  0.21248  0.04886  1.0000
  Mg  Mg24      1.0  0.66701  0.17803  0.43673  1.0000
