data_image0
_chemical_formula_structural       H36C96N16O24SnCSn2CSnTe4Mg2SnCSn2CSnTe4Mg2SnCSn2CSnTe4Mg2SnCSn2CSnTe4Mg2SnCSn2CSnTe4Mg2SnCSn2CSnTe4Mg2
_chemical_formula_sum              "H36 C108 N16 O24 Sn24 Te24 Mg12"
_cell_length_a       31.2629
_cell_length_b       31.3711
_cell_length_c       8.16547
_cell_angle_alpha    95.7845
_cell_angle_beta     103.026
_cell_angle_gamma    120.007

_symmetry_space_group_name_H-M    'P1'
_space_group_IT_number       1

loop_
  _space_group_symop_operation_xyz
  'x, y, z'

loop_
  _atom_site_type_symbol
  _atom_site_label
  _atom_site_symmetry_multiplicity
  _atom_site_fract_x
  _atom_site_fract_y
  _atom_site_fract_z
  _atom_site_occupancy
  H   H1        1.0  0.43242  0.73202  0.19552  1.0000
  H   H2        1.0  0.70867  0.42839  0.16739  1.0000
  H   H3        1.0  0.74262  0.31490  0.19281  1.0000
  H   H4        1.0  0.56916  0.30246  0.31585  1.0000
  H   H5        1.0  0.25637  0.57348  0.29449  1.0000
  H   H6        1.0  0.29307  0.72468  0.35074  1.0000
  H   H7        1.0  0.48121  0.82472  0.23113  1.0000
  H   H8        1.0  0.66168  0.47216  0.16502  1.0000
  H   H9        1.0  0.83479  0.36136  0.21089  1.0000
  H   H10       1.0  0.52353  0.34799  0.30397  1.0000
  H   H11       1.0  0.16426  0.52494  0.27839  1.0000
  H   H12       1.0  0.34237  0.81638  0.37256  1.0000
  H   H13       1.0  0.99796  0.57550  0.98677  1.0000
  H   H14       1.0  0.42647  0.42087  0.06419  1.0000
  H   H15       1.0  0.57826  0.99337  0.97260  1.0000
  H   H16       1.0  0.00239  0.41639  0.00806  1.0000
  H   H17       1.0  0.57128  0.56915  0.92383  1.0000
  H   H18       1.0  0.42796  0.00173  0.07466  1.0000
  H   H19       1.0  0.42860  0.73958  0.69571  1.0000
  H   H20       1.0  0.27901  0.70532  0.61215  1.0000
  H   H21       1.0  0.70637  0.43408  0.68818  1.0000
  H   H22       1.0  0.56757  0.29210  0.83451  1.0000
  H   H23       1.0  0.71783  0.40900  0.88782  1.0000
  H   H24       1.0  0.29667  0.71784  0.85664  1.0000
  H   H25       1.0  0.47780  0.83185  0.72345  1.0000
  H   H26       1.0  0.18679  0.65753  0.59600  1.0000
  H   H27       1.0  0.65931  0.47786  0.68542  1.0000
  H   H28       1.0  0.52198  0.33745  0.81817  1.0000
  H   H29       1.0  0.81069  0.45789  0.91273  1.0000
  H   H30       1.0  0.34618  0.81012  0.88185  1.0000
  H   H31       1.0  0.99801  0.58286  0.49867  1.0000
  H   H32       1.0  0.43154  0.43479  0.58601  1.0000
  H   H33       1.0  0.57608  0.00179  0.47680  1.0000
  H   H34       1.0  0.99950  0.42161  0.50348  1.0000
  H   H35       1.0  0.57013  0.57608  0.40180  1.0000
  H   H36       1.0  0.42388  0.00852  0.56763  1.0000
  C   C1        1.0  0.04129  0.49372  0.97539  1.0000
  C   C2        1.0  0.49742  0.53695  0.97704  1.0000
  C   C3        1.0  0.46294  0.95701  0.05561  1.0000
  C   C4        1.0  0.95930  0.49826  0.01913  1.0000
  C   C5        1.0  0.50066  0.45286  0.01198  1.0000
  C   C6        1.0  0.54327  0.03812  0.99278  1.0000
  C   C7        1.0  0.49902  0.04822  0.52231  1.0000
  C   C8        1.0  0.54127  0.50270  0.46613  1.0000
  C   C9        1.0  0.95832  0.46020  0.52463  1.0000
  C   C10       1.0  0.50093  0.96199  0.52231  1.0000
  C   C11       1.0  0.46045  0.50783  0.52018  1.0000
  C   C12       1.0  0.03867  0.54392  0.47429  1.0000
  C   C13       1.0  0.09130  0.50341  0.95423  1.0000
  C   C14       1.0  0.48410  0.57585  0.95918  1.0000
  C   C15       1.0  0.42524  0.90764  0.08401  1.0000
  C   C16       1.0  0.91081  0.49008  0.04849  1.0000
  C   C17       1.0  0.51333  0.41314  0.02422  1.0000
  C   C18       1.0  0.57979  0.08703  0.95883  1.0000
  C   C19       1.0  0.50864  0.09925  0.51453  1.0000
  C   C20       1.0  0.57979  0.48913  0.44808  1.0000
  C   C21       1.0  0.90870  0.42093  0.54623  1.0000
  C   C22       1.0  0.49048  0.91028  0.52480  1.0000
  C   C23       1.0  0.42251  0.52124  0.54277  1.0000
  C   C24       1.0  0.08653  0.58227  0.44161  1.0000
  C   C25       1.0  0.41300  0.74870  0.12721  1.0000
  C   C26       1.0  0.66745  0.40765  0.09518  1.0000
  C   C27       1.0  0.75697  0.34555  0.12834  1.0000
  C   C28       1.0  0.58940  0.34094  0.39629  1.0000
  C   C29       1.0  0.24173  0.59184  0.36418  1.0000
  C   C30       1.0  0.33386  0.74763  0.42864  1.0000
  C   C31       1.0  0.44110  0.80114  0.14575  1.0000
  C   C32       1.0  0.64130  0.43284  0.09128  1.0000
  C   C33       1.0  0.80957  0.37232  0.14036  1.0000
  C   C34       1.0  0.56314  0.36609  0.39118  1.0000
  C   C35       1.0  0.18930  0.56431  0.35362  1.0000
  C   C36       1.0  0.36136  0.79967  0.44357  1.0000
  C   C37       1.0  0.99901  0.54145  0.99060  1.0000
  C   C38       1.0  0.45767  0.45271  0.03502  1.0000
  C   C39       1.0  0.54608  0.99513  0.99496  1.0000
  C   C40       1.0  0.00126  0.45035  0.00265  1.0000
  C   C41       1.0  0.54051  0.53736  0.95473  1.0000
  C   C42       1.0  0.46031  0.00003  0.05395  1.0000
  C   C43       1.0  0.36084  0.71742  0.01884  1.0000
  C   C44       1.0  0.72287  0.35800  0.03522  1.0000
  C   C45       1.0  0.64169  0.35631  0.00539  1.0000
  C   C46       1.0  0.41728  0.82341  0.05640  1.0000
  C   C47       1.0  0.58853  0.40723  0.99397  1.0000
  C   C48       1.0  0.82960  0.41305  0.06274  1.0000
  C   C49       1.0  0.03956  0.49981  0.47822  1.0000
  C   C50       1.0  0.49837  0.54663  0.46877  1.0000
  C   C51       1.0  0.45915  0.96405  0.54876  1.0000
  C   C52       1.0  0.95840  0.50493  0.52597  1.0000
  C   C53       1.0  0.50271  0.46352  0.51583  1.0000
  C   C54       1.0  0.54086  0.04629  0.49704  1.0000
  C   C55       1.0  0.50202  0.04044  0.02197  1.0000
  C   C56       1.0  0.54089  0.49390  0.97463  1.0000
  C   C57       1.0  0.96005  0.45412  0.02374  1.0000
  C   C58       1.0  0.50439  0.95462  0.02732  1.0000
  C   C59       1.0  0.45778  0.49653  0.01739  1.0000
  C   C60       1.0  0.03987  0.53746  0.96766  1.0000
  C   C61       1.0  0.08914  0.50915  0.45478  1.0000
  C   C62       1.0  0.48458  0.58530  0.44897  1.0000
  C   C63       1.0  0.42126  0.91431  0.57455  1.0000
  C   C64       1.0  0.91041  0.49689  0.55834  1.0000
  C   C65       1.0  0.51545  0.42398  0.53322  1.0000
  C   C66       1.0  0.57906  0.09613  0.47373  1.0000
  C   C67       1.0  0.51088  0.09095  0.00998  1.0000
  C   C68       1.0  0.58013  0.48145  0.95864  1.0000
  C   C69       1.0  0.91083  0.41524  0.04973  1.0000
  C   C70       1.0  0.49435  0.90326  0.03487  1.0000
  C   C71       1.0  0.41950  0.50980  0.03825  1.0000
  C   C72       1.0  0.08773  0.57582  0.93409  1.0000
  C   C73       1.0  0.40961  0.75599  0.62292  1.0000
  C   C74       1.0  0.25405  0.66565  0.54150  1.0000
  C   C75       1.0  0.66597  0.41431  0.60688  1.0000
  C   C76       1.0  0.58879  0.33163  0.90597  1.0000
  C   C77       1.0  0.74376  0.39927  0.96097  1.0000
  C   C78       1.0  0.33727  0.74103  0.93595  1.0000
  C   C79       1.0  0.43766  0.80827  0.63837  1.0000
  C   C80       1.0  0.20189  0.63885  0.53076  1.0000
  C   C81       1.0  0.64001  0.43973  0.60281  1.0000
  C   C82       1.0  0.56246  0.35673  0.89909  1.0000
  C   C83       1.0  0.79617  0.42685  0.97511  1.0000
  C   C84       1.0  0.36491  0.79311  0.95237  1.0000
  C   C85       1.0  0.99828  0.54833  0.49944  1.0000
  C   C86       1.0  0.46113  0.46486  0.54546  1.0000
  C   C87       1.0  0.54343  0.00316  0.49626  1.0000
  C   C88       1.0  0.99916  0.45610  0.50216  1.0000
  C   C89       1.0  0.54035  0.54566  0.44065  1.0000
  C   C90       1.0  0.45660  0.00717  0.54895  1.0000
  C   C91       1.0  0.27555  0.64256  0.46358  1.0000
  C   C92       1.0  0.35772  0.72440  0.51319  1.0000
  C   C93       1.0  0.64110  0.36435  0.50513  1.0000
  C   C94       1.0  0.41377  0.83020  0.54694  1.0000
  C   C95       1.0  0.16921  0.58753  0.43887  1.0000
  C   C96       1.0  0.58849  0.41549  0.49470  1.0000
  N   N1        1.0  0.11802  0.55377  0.93219  1.0000
  N   N2        1.0  0.43684  0.55820  0.99993  1.0000
  N   N3        1.0  0.44560  0.87642  0.06554  1.0000
  N   N4        1.0  0.88225  0.43886  0.06228  1.0000
  N   N5        1.0  0.56162  0.43276  0.99182  1.0000
  N   N6        1.0  0.55961  0.11872  0.97757  1.0000
  N   N7        1.0  0.33219  0.66339  0.99055  1.0000
  N   N8        1.0  0.66863  0.33043  0.01498  1.0000
  N   N9        1.0  0.11662  0.56000  0.43828  1.0000
  N   N10       1.0  0.43799  0.56819  0.49503  1.0000
  N   N11       1.0  0.44184  0.88322  0.55552  1.0000
  N   N12       1.0  0.88070  0.44480  0.56245  1.0000
  N   N13       1.0  0.56183  0.44148  0.48974  1.0000
  N   N14       1.0  0.55823  0.12739  0.48795  1.0000
  N   N15       1.0  0.32991  0.67043  0.48662  1.0000
  N   N16       1.0  0.66753  0.33797  0.51250  1.0000
  O   O1        1.0  0.10734  0.47507  0.95806  1.0000
  O   O2        1.0  0.50841  0.61449  0.91260  1.0000
  O   O3        1.0  0.38537  0.89560  0.11917  1.0000
  O   O4        1.0  0.89785  0.52073  0.06070  1.0000
  O   O5        1.0  0.48835  0.37228  0.05752  1.0000
  O   O6        1.0  0.61883  0.09788  0.91959  1.0000
  O   O7        1.0  0.48000  0.11420  0.52792  1.0000
  O   O8        1.0  0.61859  0.51268  0.40489  1.0000
  O   O9        1.0  0.89392  0.37684  0.54684  1.0000
  O   O10       1.0  0.51723  0.89361  0.50323  1.0000
  O   O11       1.0  0.38598  0.49696  0.59615  1.0000
  O   O12       1.0  0.09810  0.62399  0.41849  1.0000
  O   O13       1.0  0.10405  0.47987  0.45179  1.0000
  O   O14       1.0  0.50812  0.62357  0.39974  1.0000
  O   O15       1.0  0.38124  0.90190  0.60871  1.0000
  O   O16       1.0  0.89870  0.52821  0.58043  1.0000
  O   O17       1.0  0.49205  0.38483  0.57812  1.0000
  O   O18       1.0  0.62002  0.10799  0.44701  1.0000
  O   O19       1.0  0.48208  0.10566  0.02409  1.0000
  O   O20       1.0  0.61969  0.50667  0.92096  1.0000
  O   O21       1.0  0.89676  0.37172  0.05658  1.0000
  O   O22       1.0  0.52121  0.88650  0.01612  1.0000
  O   O23       1.0  0.38145  0.48465  0.08369  1.0000
  O   O24       1.0  0.09925  0.61744  0.90981  1.0000
  C  Sn1       1.0  0.40305  0.64512  0.89263  1.0000
  C   C97       1.0  0.35806  0.63185  0.93661  1.0000
  C  Sn2       1.0  0.24440  0.52180  0.03324  1.0000
  C  Sn3       1.0  0.27238  0.49866  0.08714  1.0000
  C   C98       1.0  0.31735  0.51194  0.04319  1.0000
  C  Sn4       1.0  0.43103  0.62198  0.94653  1.0000
  O  Te1       1.0  0.41993  0.68115  0.79595  1.0000
  O  Te2       1.0  0.19931  0.50913  0.07558  1.0000
  O  Te3       1.0  0.25546  0.46260  0.18388  1.0000
  O  Te4       1.0  0.47610  0.63466  0.90422  1.0000
  Mg  Mg1       1.0  0.19190  0.45798  0.20945  1.0000
  Mg  Mg2       1.0  0.48355  0.68582  0.77043  1.0000
  C  Sn5       1.0  0.64459  0.21503  0.46530  1.0000
  C   C99       1.0  0.60157  0.18726  0.52062  1.0000
  C  Sn6       1.0  0.57242  0.20744  0.55264  1.0000
  C  Sn7       1.0  0.58653  0.25638  0.52877  1.0000
  C   C100      1.0  0.62952  0.28412  0.47346  1.0000
  C  Sn8       1.0  0.65870  0.26397  0.44143  1.0000
  O  Te5       1.0  0.67318  0.19411  0.43406  1.0000
  O  Te6       1.0  0.52958  0.17896  0.60791  1.0000
  O  Te7       1.0  0.55790  0.27729  0.56007  1.0000
  O  Te8       1.0  0.70151  0.29241  0.38617  1.0000
  Mg  Mg3       1.0  0.50281  0.22381  0.63347  1.0000
  Mg  Mg4       1.0  0.72829  0.24760  0.36049  1.0000
  C  Sn9       1.0  0.64732  0.20785  0.96562  1.0000
  C   C101      1.0  0.50727  0.10474  0.01488  1.0000
  C  Sn10      1.0  0.47704  0.12392  0.04381  1.0000
  C  Sn11      1.0  0.49106  0.17310  0.02297  1.0000
  C   C102      1.0  0.63108  0.27618  0.97371  1.0000
  C  Sn12      1.0  0.66134  0.25703  0.94478  1.0000
  O  Te9       1.0  0.67697  0.18792  0.93737  1.0000
  O  Te10      1.0  0.43324  0.09422  0.09303  1.0000
  O  Te11      1.0  0.46137  0.19302  0.05127  1.0000
  O  Te12      1.0  0.70511  0.28670  0.89556  1.0000
  Mg  Mg5       1.0  0.40522  0.13804  0.11645  1.0000
  Mg  Mg6       1.0  0.73314  0.24292  0.87203  1.0000
  C  Sn13      1.0  0.40171  0.65382  0.38821  1.0000
  C   C103      1.0  0.35702  0.64002  0.43486  1.0000
  C  Sn14      1.0  0.34037  0.60399  0.53174  1.0000
  C  Sn15      1.0  0.36900  0.58132  0.58317  1.0000
  C   C104      1.0  0.41367  0.59513  0.53656  1.0000
  C  Sn16      1.0  0.43035  0.63114  0.43964  1.0000
  O  Te13      1.0  0.41765  0.68992  0.29133  1.0000
  O  Te14      1.0  0.29555  0.59079  0.57678  1.0000
  O  Te15      1.0  0.35303  0.54519  0.68012  1.0000
  O  Te16      1.0  0.47514  0.64435  0.39464  1.0000
  Mg  Mg7       1.0  0.28951  0.53976  0.70983  1.0000
  Mg  Mg8       1.0  0.48123  0.69540  0.26167  1.0000
  C  Sn17      1.0  0.30847  0.71986  0.99937  1.0000
  C   C105      1.0  0.26992  0.66944  0.90961  1.0000
  C  Sn18      1.0  0.28359  0.63590  0.85217  1.0000
  C  Sn19      1.0  0.33692  0.65309  0.88522  1.0000
  C   C106      1.0  0.37544  0.70347  0.97496  1.0000
  C  Sn20      1.0  0.26574  0.66295  0.03243  1.0000
  O  Te17      1.0  0.19785  0.67863  0.05560  1.0000
  O  Te18      1.0  0.24435  0.58567  0.76264  1.0000
  O  Te19      1.0  0.35146  0.62016  0.82890  1.0000
  O  Te20      1.0  0.30495  0.71314  0.12193  1.0000
  Mg  Mg9       1.0  0.28379  0.55531  0.71235  1.0000
  Mg  Mg10      1.0  0.26556  0.74352  0.17235  1.0000
  C  Sn21      1.0  0.75075  0.40722  0.41897  1.0000
  C   C107      1.0  0.72346  0.36495  0.48188  1.0000
  C  Sn22      1.0  0.75033  0.35128  0.60388  1.0000
  C  Sn23      1.0  0.80563  0.38048  0.66436  1.0000
  C   C108      1.0  0.83288  0.42272  0.60148  1.0000
  C  Sn24      1.0  0.80604  0.43641  0.47945  1.0000
  O  Te21      1.0  0.72308  0.42019  0.29705  1.0000
  O  Te22      1.0  0.72220  0.30886  0.66482  1.0000
  O  Te23      1.0  0.83328  0.36747  0.78637  1.0000
  O  Te24      1.0  0.83415  0.47881  0.41854  1.0000
  Mg  Mg11      1.0  0.77749  0.30645  0.83043  1.0000
  Mg  Mg12      1.0  0.77890  0.48127  0.25301  1.0000
