data_image0
_chemical_formula_structural       H48C120N12O24C2Sn2C2HTe2HMgC2Sn2C2HTe2HMgC2Sn2C2HTe2HMgC2Sn2C2HTe2HMgC2Sn2C2HTe2HMgC2Sn2C2HTe2HMg
_chemical_formula_sum              "H60 C144 N12 O24 Sn12 Te12 Mg6"
_cell_length_a       36.5607
_cell_length_b       36.3575
_cell_length_c       7.87938
_cell_angle_alpha    90.5396
_cell_angle_beta     90.2041
_cell_angle_gamma    120.313

_symmetry_space_group_name_H-M    'P1'
_space_group_IT_number       1

loop_
  _space_group_symop_operation_xyz
  'x, y, z'

loop_
  _atom_site_type_symbol
  _atom_site_label
  _atom_site_symmetry_multiplicity
  _atom_site_fract_x
  _atom_site_fract_y
  _atom_site_fract_z
  _atom_site_occupancy
  H   H1        1.0  0.33004  0.56409  0.10471  1.0000
  H   H2        1.0  0.43025  0.66671  0.39468  1.0000
  H   H3        1.0  0.76404  0.33567  0.40972  1.0000
  H   H4        1.0  0.66912  0.43551  0.39232  1.0000
  H   H5        1.0  0.56635  0.33163  0.11624  1.0000
  H   H6        1.0  0.76383  0.43279  0.10135  1.0000
  H   H7        1.0  0.36941  0.52506  0.11090  1.0000
  H   H8        1.0  0.46965  0.62774  0.39886  1.0000
  H   H9        1.0  0.84252  0.37431  0.40307  1.0000
  H   H10       1.0  0.62956  0.47432  0.39325  1.0000
  H   H11       1.0  0.52691  0.37067  0.11906  1.0000
  H   H12       1.0  0.84256  0.47192  0.09975  1.0000
  H   H13       1.0  0.29405  0.70508  0.23580  1.0000
  H   H14       1.0  0.29216  0.58600  0.24609  1.0000
  H   H15       1.0  0.41085  0.70386  0.24491  1.0000
  H   H16       1.0  0.70579  0.29576  0.25860  1.0000
  H   H17       1.0  0.70574  0.41374  0.24980  1.0000
  H   H18       1.0  0.58788  0.29492  0.25857  1.0000
  H   H19       1.0  0.55951  0.56083  0.10720  1.0000
  H   H20       1.0  0.44104  0.99895  0.09420  1.0000
  H   H21       1.0  0.99706  0.43842  0.08238  1.0000
  H   H22       1.0  0.43782  0.43741  0.41131  1.0000
  H   H23       1.0  0.00106  0.56265  0.39877  1.0000
  H   H24       1.0  0.56207  0.00065  0.41980  1.0000
  H   H25       1.0  0.23498  0.66648  0.58838  1.0000
  H   H26       1.0  0.23367  0.56601  0.87840  1.0000
  H   H27       1.0  0.76387  0.33149  0.88746  1.0000
  H   H28       1.0  0.66777  0.43331  0.90680  1.0000
  H   H29       1.0  0.56832  0.33383  0.60252  1.0000
  H   H30       1.0  0.76418  0.43523  0.62593  1.0000
  H   H31       1.0  0.15639  0.62738  0.58665  1.0000
  H   H32       1.0  0.15510  0.52685  0.87410  1.0000
  H   H33       1.0  0.84218  0.37010  0.88166  1.0000
  H   H34       1.0  0.62909  0.47316  0.90621  1.0000
  H   H35       1.0  0.52972  0.37370  0.60309  1.0000
  H   H36       1.0  0.84261  0.47382  0.62206  1.0000
  H   H37       1.0  0.29364  0.70500  0.73690  1.0000
  H   H38       1.0  0.29190  0.58597  0.74103  1.0000
  H   H39       1.0  0.41055  0.70417  0.74366  1.0000
  H   H40       1.0  0.70504  0.29487  0.76235  1.0000
  H   H41       1.0  0.70571  0.41336  0.75543  1.0000
  H   H42       1.0  0.58760  0.29480  0.75448  1.0000
  H   H43       1.0  0.56097  0.56257  0.59510  1.0000
  H   H44       1.0  0.44101  0.99855  0.58982  1.0000
  H   H45       1.0  0.99692  0.43846  0.57325  1.0000
  H   H46       1.0  0.44137  0.44092  0.91412  1.0000
  H   H47       1.0  0.00106  0.56081  0.90603  1.0000
  H   H48       1.0  0.56172  0.00027  0.91756  1.0000
  C   C1        1.0  0.36014  0.57791  0.17258  1.0000
  C   C2        1.0  0.41700  0.63605  0.32970  1.0000
  C   C3        1.0  0.78081  0.36479  0.33714  1.0000
  C   C4        1.0  0.63839  0.42133  0.32902  1.0000
  C   C5        1.0  0.58014  0.36248  0.18016  1.0000
  C   C6        1.0  0.78081  0.42019  0.17064  1.0000
  C   C7        1.0  0.38202  0.55575  0.17516  1.0000
  C   C8        1.0  0.43930  0.61436  0.33323  1.0000
  C   C9        1.0  0.82488  0.38637  0.33526  1.0000
  C   C10       1.0  0.61643  0.44339  0.33052  1.0000
  C   C11       1.0  0.55776  0.38412  0.18065  1.0000
  C   C12       1.0  0.82494  0.44230  0.16854  1.0000
  C   C13       1.0  0.42942  0.51139  0.33163  1.0000
  C   C14       1.0  0.48871  0.91779  0.32980  1.0000
  C   C15       1.0  0.08216  0.56982  0.30896  1.0000
  C   C16       1.0  0.48483  0.56755  0.18499  1.0000
  C   C17       1.0  0.08029  0.51279  0.16015  1.0000
  C   C18       1.0  0.43314  0.91712  0.17775  1.0000
  C   C19       1.0  0.56826  0.48753  0.18836  1.0000
  C   C20       1.0  0.51492  0.08196  0.18019  1.0000
  C   C21       1.0  0.91607  0.43118  0.17331  1.0000
  C   C22       1.0  0.51259  0.43057  0.33063  1.0000
  C   C23       1.0  0.91795  0.48833  0.32159  1.0000
  C   C24       1.0  0.57026  0.08286  0.33519  1.0000
  C   C25       1.0  0.46313  0.50050  0.30159  1.0000
  C   C26       1.0  0.49988  0.96270  0.29995  1.0000
  C   C27       1.0  0.03694  0.53623  0.28121  1.0000
  C   C28       1.0  0.49665  0.53454  0.21750  1.0000
  C   C29       1.0  0.03583  0.50188  0.19422  1.0000
  C   C30       1.0  0.46642  0.96228  0.21110  1.0000
  C   C31       1.0  0.53437  0.49801  0.21861  1.0000
  C   C32       1.0  0.50352  0.03713  0.21267  1.0000
  C   C33       1.0  0.96128  0.46489  0.19992  1.0000
  C   C34       1.0  0.50082  0.46382  0.30192  1.0000
  C   C35       1.0  0.96240  0.49925  0.28680  1.0000
  C   C36       1.0  0.53692  0.03761  0.30245  1.0000
  C   C37       1.0  0.31079  0.68745  0.23830  1.0000
  C   C38       1.0  0.30970  0.62062  0.24381  1.0000
  C   C39       1.0  0.37640  0.68683  0.24359  1.0000
  C   C40       1.0  0.68848  0.31283  0.25712  1.0000
  C   C41       1.0  0.68847  0.37912  0.25258  1.0000
  C   C42       1.0  0.62232  0.31237  0.25694  1.0000
  C   C43       1.0  0.28747  0.64275  0.23964  1.0000
  C   C44       1.0  0.35413  0.64214  0.24541  1.0000
  C   C45       1.0  0.35526  0.71001  0.24074  1.0000
  C   C46       1.0  0.71115  0.35749  0.25505  1.0000
  C   C47       1.0  0.64405  0.35707  0.25453  1.0000
  C   C48       1.0  0.64405  0.28972  0.25712  1.0000
  C   C49       1.0  0.42154  0.57418  0.25586  1.0000
  C   C50       1.0  0.84665  0.42506  0.25078  1.0000
  C   C51       1.0  0.57611  0.42451  0.25652  1.0000
  C   C52       1.0  0.37715  0.61841  0.24945  1.0000
  C   C53       1.0  0.75799  0.38109  0.25430  1.0000
  C   C54       1.0  0.62071  0.38050  0.25438  1.0000
  C   C55       1.0  0.53346  0.53447  0.17276  1.0000
  C   C56       1.0  0.46707  0.99945  0.16381  1.0000
  C   C57       1.0  0.99795  0.46507  0.15026  1.0000
  C   C58       1.0  0.46398  0.46391  0.34673  1.0000
  C   C59       1.0  0.00026  0.53608  0.33063  1.0000
  C   C60       1.0  0.53623  0.00038  0.34960  1.0000
  C   C61       1.0  0.21785  0.63636  0.65426  1.0000
  C   C62       1.0  0.21708  0.57927  0.81073  1.0000
  C   C63       1.0  0.78067  0.36222  0.82579  1.0000
  C   C64       1.0  0.63798  0.42040  0.83719  1.0000
  C   C65       1.0  0.58146  0.36387  0.67230  1.0000
  C   C66       1.0  0.78090  0.42097  0.68516  1.0000
  C   C67       1.0  0.17372  0.61464  0.65230  1.0000
  C   C68       1.0  0.17296  0.55710  0.80961  1.0000
  C   C69       1.0  0.82475  0.38372  0.82353  1.0000
  C   C70       1.0  0.61650  0.44298  0.83789  1.0000
  C   C71       1.0  0.55960  0.38607  0.67165  1.0000
  C   C72       1.0  0.82499  0.44292  0.68207  1.0000
  C   C73       1.0  0.43154  0.51342  0.82538  1.0000
  C   C74       1.0  0.48785  0.91713  0.82843  1.0000
  C   C75       1.0  0.08201  0.56840  0.81205  1.0000
  C   C76       1.0  0.48658  0.56946  0.67684  1.0000
  C   C77       1.0  0.08019  0.51254  0.65438  1.0000
  C   C78       1.0  0.43293  0.91685  0.67313  1.0000
  C   C79       1.0  0.57008  0.48881  0.67909  1.0000
  C   C80       1.0  0.51452  0.08162  0.67871  1.0000
  C   C81       1.0  0.91609  0.43059  0.66952  1.0000
  C   C82       1.0  0.51496  0.43341  0.83068  1.0000
  C   C83       1.0  0.91797  0.48687  0.82537  1.0000
  C   C84       1.0  0.56994  0.08254  0.83251  1.0000
  C   C85       1.0  0.46555  0.50300  0.79678  1.0000
  C   C86       1.0  0.49953  0.96222  0.79768  1.0000
  C   C87       1.0  0.03682  0.53504  0.78237  1.0000
  C   C88       1.0  0.49869  0.53665  0.70957  1.0000
  C   C89       1.0  0.03573  0.50131  0.69043  1.0000
  C   C90       1.0  0.46625  0.96191  0.70766  1.0000
  C   C91       1.0  0.53667  0.50018  0.71062  1.0000
  C   C92       1.0  0.50323  0.03674  0.71000  1.0000
  C   C93       1.0  0.96124  0.46413  0.69764  1.0000
  C   C94       1.0  0.50351  0.46668  0.79858  1.0000
  C   C95       1.0  0.96235  0.49800  0.78875  1.0000
  C   C96       1.0  0.53660  0.03721  0.80007  1.0000
  C   C97       1.0  0.31043  0.68739  0.73820  1.0000
  C   C98       1.0  0.30958  0.62061  0.74071  1.0000
  C   C99       1.0  0.37611  0.68685  0.74252  1.0000
  C   C100      1.0  0.68808  0.31227  0.75987  1.0000
  C   C101      1.0  0.68848  0.37872  0.75645  1.0000
  C   C102      1.0  0.62206  0.31212  0.75619  1.0000
  C   C103      1.0  0.28728  0.64268  0.73736  1.0000
  C   C104      1.0  0.35403  0.64217  0.74364  1.0000
  C   C105      1.0  0.35487  0.70990  0.74088  1.0000
  C   C106      1.0  0.71104  0.35694  0.75798  1.0000
  C   C107      1.0  0.64404  0.35683  0.75567  1.0000
  C   C108      1.0  0.64367  0.28936  0.75894  1.0000
  C   C109      1.0  0.15155  0.57511  0.73067  1.0000
  C   C110      1.0  0.84668  0.42406  0.75138  1.0000
  C   C111      1.0  0.57736  0.42558  0.75468  1.0000
  C   C112      1.0  0.24037  0.61927  0.73379  1.0000
  C   C113      1.0  0.75788  0.38026  0.75658  1.0000
  C   C114      1.0  0.62095  0.38054  0.75481  1.0000
  C   C115      1.0  0.53535  0.53639  0.66321  1.0000
  C   C116      1.0  0.46691  0.99906  0.66043  1.0000
  C   C117      1.0  0.99787  0.46470  0.64467  1.0000
  C   C118      1.0  0.46692  0.46696  0.84522  1.0000
  C   C119      1.0  0.00019  0.53458  0.83472  1.0000
  C   C120      1.0  0.53588  0.99995  0.84726  1.0000
  N   N1        1.0  0.44842  0.89207  0.25243  1.0000
  N   N2        1.0  0.10640  0.55366  0.23383  1.0000
  N   N3        1.0  0.44438  0.55187  0.25815  1.0000
  N   N4        1.0  0.55518  0.10775  0.25758  1.0000
  N   N5        1.0  0.89190  0.44738  0.24870  1.0000
  N   N6        1.0  0.55327  0.44677  0.25881  1.0000
  N   N7        1.0  0.44774  0.89170  0.74957  1.0000
  N   N8        1.0  0.10628  0.55296  0.73144  1.0000
  N   N9        1.0  0.44606  0.55359  0.75014  1.0000
  N   N10       1.0  0.55437  0.10738  0.75844  1.0000
  N   N11       1.0  0.89186  0.44633  0.74866  1.0000
  N   N12       1.0  0.55501  0.44845  0.75466  1.0000
  O   O1        1.0  0.49474  0.09455  0.10046  1.0000
  O   O2        1.0  0.90198  0.39681  0.10043  1.0000
  O   O3        1.0  0.60177  0.50880  0.11493  1.0000
  O   O4        1.0  0.90573  0.50913  0.40035  1.0000
  O   O5        1.0  0.60335  0.09632  0.41530  1.0000
  O   O6        1.0  0.49247  0.39660  0.40292  1.0000
  O   O7        1.0  0.50912  0.90524  0.40805  1.0000
  O   O8        1.0  0.09621  0.60394  0.38370  1.0000
  O   O9        1.0  0.39615  0.49072  0.40732  1.0000
  O   O10       1.0  0.09260  0.49197  0.08215  1.0000
  O   O11       1.0  0.39980  0.90369  0.09975  1.0000
  O   O12       1.0  0.50475  0.60085  0.10807  1.0000
  O   O13       1.0  0.49455  0.09435  0.59844  1.0000
  O   O14       1.0  0.90210  0.39678  0.59220  1.0000
  O   O15       1.0  0.60319  0.50894  0.60172  1.0000
  O   O16       1.0  0.90580  0.50731  0.90725  1.0000
  O   O17       1.0  0.60354  0.09625  0.90887  1.0000
  O   O18       1.0  0.49485  0.40029  0.90871  1.0000
  O   O19       1.0  0.50750  0.90394  0.90806  1.0000
  O   O20       1.0  0.09600  0.60187  0.89166  1.0000
  O   O21       1.0  0.39824  0.49263  0.90068  1.0000
  O   O22       1.0  0.09241  0.49213  0.57294  1.0000
  O   O23       1.0  0.39998  0.90368  0.59240  1.0000
  O   O24       1.0  0.50651  0.60283  0.60029  1.0000
  C   C121      1.0  0.18289  0.55707  0.31895  1.0000
  C   C122      1.0  0.15545  0.57022  0.25777  1.0000
  C  Sn1       1.0  0.17150  0.60909  0.17479  1.0000
  C  Sn2       1.0  0.21587  0.63520  0.15279  1.0000
  C   C123      1.0  0.24306  0.62174  0.21434  1.0000
  C   C124      1.0  0.22665  0.58279  0.29725  1.0000
  H   H49       1.0  0.17020  0.52692  0.38301  1.0000
  O  Te1       1.0  0.14364  0.62175  0.11451  1.0000
  O  Te2       1.0  0.23277  0.67419  0.07026  1.0000
  H   H50       1.0  0.24791  0.57261  0.34450  1.0000
  Mg  Mg1       1.0  0.18192  0.67760  0.01053  1.0000
  C   C125      1.0  0.62616  0.18561  0.16483  1.0000
  C   C126      1.0  0.58857  0.15733  0.24654  1.0000
  C  Sn3       1.0  0.56533  0.17252  0.33204  1.0000
  C  Sn4       1.0  0.58006  0.21687  0.33555  1.0000
  C   C127      1.0  0.61769  0.24490  0.25332  1.0000
  C   C128      1.0  0.64071  0.22936  0.16818  1.0000
  H   H51       1.0  0.64396  0.17359  0.09888  1.0000
  O  Te3       1.0  0.52784  0.14382  0.41306  1.0000
  O  Te4       1.0  0.55745  0.23291  0.42002  1.0000
  H   H52       1.0  0.66980  0.25127  0.10484  1.0000
  Mg  Mg2       1.0  0.50819  0.18111  0.51147  1.0000
  C   C129      1.0  0.57080  0.20888  0.84744  1.0000
  C   C130      1.0  0.61136  0.23714  0.78770  1.0000
  C  Sn5       1.0  0.63429  0.22178  0.70091  1.0000
  C  Sn6       1.0  0.61618  0.17728  0.67357  1.0000
  C   C131      1.0  0.57556  0.14927  0.73374  1.0000
  C   C132      1.0  0.55290  0.16499  0.82048  1.0000
  H   H53       1.0  0.55325  0.22104  0.91447  1.0000
  O  Te5       1.0  0.67479  0.25045  0.64213  1.0000
  O  Te6       1.0  0.63840  0.16107  0.58716  1.0000
  H   H54       1.0  0.52148  0.14310  0.86662  1.0000
  Mg  Mg3       1.0  0.69256  0.21290  0.53143  1.0000
  C   C133      1.0  0.42748  0.63679  0.83666  1.0000
  C   C134      1.0  0.38864  0.62520  0.75901  1.0000
  C  Sn7       1.0  0.36521  0.58556  0.67785  1.0000
  C  Sn8       1.0  0.38103  0.55707  0.67461  1.0000
  C   C135      1.0  0.41991  0.56895  0.75277  1.0000
  C   C136      1.0  0.44310  0.60870  0.83358  1.0000
  H   H55       1.0  0.44541  0.66753  0.89926  1.0000
  O  Te7       1.0  0.32648  0.57449  0.60085  1.0000
  O  Te8       1.0  0.35826  0.51725  0.59444  1.0000
  H   H56       1.0  0.47315  0.61765  0.89378  1.0000
  Mg  Mg4       1.0  0.30710  0.51670  0.50748  1.0000
  C   C137      1.0  0.44138  0.81377  0.65551  1.0000
  C   C138      1.0  0.42972  0.84220  0.72097  1.0000
  C  Sn9       1.0  0.39184  0.82705  0.80948  1.0000
  C  Sn10      1.0  0.36521  0.78258  0.83273  1.0000
  C   C139      1.0  0.37717  0.75439  0.76685  1.0000
  C   C140      1.0  0.41514  0.76991  0.67843  1.0000
  H   H57       1.0  0.47077  0.82577  0.58718  1.0000
  O  Te9       1.0  0.38066  0.85589  0.87399  1.0000
  O  Te10      1.0  0.32718  0.76657  0.92074  1.0000
  H   H58       1.0  0.42417  0.74788  0.62786  1.0000
  Mg  Mg5       1.0  0.32570  0.81859  0.98479  1.0000
  C   C141      1.0  0.36356  0.79073  0.33364  1.0000
  C   C142      1.0  0.37322  0.76236  0.25261  1.0000
  C  Sn11      1.0  0.41197  0.77753  0.17075  1.0000
  C  Sn12      1.0  0.44154  0.82193  0.17026  1.0000
  C   C143      1.0  0.43159  0.85004  0.25180  1.0000
  C   C144      1.0  0.39271  0.83452  0.33328  1.0000
  H   H59       1.0  0.33349  0.77873  0.39677  1.0000
  O  Te11      1.0  0.42111  0.74875  0.09035  1.0000
  O  Te12      1.0  0.48051  0.83794  0.08947  1.0000
  H   H60       1.0  0.38525  0.85649  0.39610  1.0000
  Mg  Mg6       1.0  0.48080  0.78929  0.99744  1.0000
