data_image0
_chemical_formula_structural       H24C84N12O24C2Sn2C2HTe2HMgC2Sn2C2HTe2HMgC2Sn2C2HTe2HMgC2Sn2C2HTe2HMgC2Sn2C2HTe2HMgC2Sn2C2HTe2HMgC2Sn2C2HTe2HMgC2Sn2C2HTe2HMgC2Sn2C2HTe2HMgC2Sn2C2HTe2HMgC2Sn2C2HTe2HMgC2Sn2C2HTe2HMg
_chemical_formula_sum              "H48 C132 N12 O24 Sn24 Te24 Mg12"
_cell_length_a       36.5607
_cell_length_b       36.3575
_cell_length_c       7.87938
_cell_angle_alpha    90.5396
_cell_angle_beta     90.2041
_cell_angle_gamma    120.313

_symmetry_space_group_name_H-M    'P1'
_space_group_IT_number       1

loop_
  _space_group_symop_operation_xyz
  'x, y, z'

loop_
  _atom_site_type_symbol
  _atom_site_label
  _atom_site_symmetry_multiplicity
  _atom_site_fract_x
  _atom_site_fract_y
  _atom_site_fract_z
  _atom_site_occupancy
  H   H1        1.0  0.29405  0.70508  0.23580  1.0000
  H   H2        1.0  0.29216  0.58600  0.24609  1.0000
  H   H3        1.0  0.41085  0.70386  0.24491  1.0000
  H   H4        1.0  0.70579  0.29576  0.25860  1.0000
  H   H5        1.0  0.70574  0.41374  0.24980  1.0000
  H   H6        1.0  0.58788  0.29492  0.25857  1.0000
  H   H7        1.0  0.55951  0.56083  0.10720  1.0000
  H   H8        1.0  0.44104  0.99895  0.09420  1.0000
  H   H9        1.0  0.99706  0.43842  0.08238  1.0000
  H   H10       1.0  0.43782  0.43741  0.41131  1.0000
  H   H11       1.0  0.00106  0.56265  0.39877  1.0000
  H   H12       1.0  0.56207  0.00065  0.41980  1.0000
  H   H13       1.0  0.29364  0.70500  0.73690  1.0000
  H   H14       1.0  0.29190  0.58597  0.74103  1.0000
  H   H15       1.0  0.41055  0.70417  0.74366  1.0000
  H   H16       1.0  0.70504  0.29487  0.76235  1.0000
  H   H17       1.0  0.70571  0.41336  0.75543  1.0000
  H   H18       1.0  0.58760  0.29480  0.75448  1.0000
  H   H19       1.0  0.56097  0.56257  0.59510  1.0000
  H   H20       1.0  0.44101  0.99855  0.58982  1.0000
  H   H21       1.0  0.99692  0.43846  0.57325  1.0000
  H   H22       1.0  0.44137  0.44092  0.91412  1.0000
  H   H23       1.0  0.00106  0.56081  0.90603  1.0000
  H   H24       1.0  0.56172  0.00027  0.91756  1.0000
  C   C1        1.0  0.42942  0.51139  0.33163  1.0000
  C   C2        1.0  0.48871  0.91779  0.32980  1.0000
  C   C3        1.0  0.08216  0.56982  0.30896  1.0000
  C   C4        1.0  0.48483  0.56755  0.18499  1.0000
  C   C5        1.0  0.08029  0.51279  0.16015  1.0000
  C   C6        1.0  0.43314  0.91712  0.17775  1.0000
  C   C7        1.0  0.56826  0.48753  0.18836  1.0000
  C   C8        1.0  0.51492  0.08196  0.18019  1.0000
  C   C9        1.0  0.91607  0.43118  0.17331  1.0000
  C   C10       1.0  0.51259  0.43057  0.33063  1.0000
  C   C11       1.0  0.91795  0.48833  0.32159  1.0000
  C   C12       1.0  0.57026  0.08286  0.33519  1.0000
  C   C13       1.0  0.46313  0.50050  0.30159  1.0000
  C   C14       1.0  0.49988  0.96270  0.29995  1.0000
  C   C15       1.0  0.03694  0.53623  0.28121  1.0000
  C   C16       1.0  0.49665  0.53454  0.21750  1.0000
  C   C17       1.0  0.03583  0.50188  0.19422  1.0000
  C   C18       1.0  0.46642  0.96228  0.21110  1.0000
  C   C19       1.0  0.53437  0.49801  0.21861  1.0000
  C   C20       1.0  0.50352  0.03713  0.21267  1.0000
  C   C21       1.0  0.96128  0.46489  0.19992  1.0000
  C   C22       1.0  0.50082  0.46382  0.30192  1.0000
  C   C23       1.0  0.96240  0.49925  0.28680  1.0000
  C   C24       1.0  0.53692  0.03761  0.30245  1.0000
  C   C25       1.0  0.31079  0.68745  0.23830  1.0000
  C   C26       1.0  0.30970  0.62062  0.24381  1.0000
  C   C27       1.0  0.37640  0.68683  0.24359  1.0000
  C   C28       1.0  0.68848  0.31283  0.25712  1.0000
  C   C29       1.0  0.68847  0.37912  0.25258  1.0000
  C   C30       1.0  0.62232  0.31237  0.25694  1.0000
  C   C31       1.0  0.28747  0.64275  0.23964  1.0000
  C   C32       1.0  0.35413  0.64214  0.24541  1.0000
  C   C33       1.0  0.35526  0.71001  0.24074  1.0000
  C   C34       1.0  0.71115  0.35749  0.25505  1.0000
  C   C35       1.0  0.64405  0.35707  0.25453  1.0000
  C   C36       1.0  0.64405  0.28972  0.25712  1.0000
  C   C37       1.0  0.53346  0.53447  0.17276  1.0000
  C   C38       1.0  0.46707  0.99945  0.16381  1.0000
  C   C39       1.0  0.99795  0.46507  0.15026  1.0000
  C   C40       1.0  0.46398  0.46391  0.34673  1.0000
  C   C41       1.0  0.00026  0.53608  0.33063  1.0000
  C   C42       1.0  0.53623  0.00038  0.34960  1.0000
  C   C43       1.0  0.43154  0.51342  0.82538  1.0000
  C   C44       1.0  0.48785  0.91713  0.82843  1.0000
  C   C45       1.0  0.08201  0.56840  0.81205  1.0000
  C   C46       1.0  0.48658  0.56946  0.67684  1.0000
  C   C47       1.0  0.08019  0.51254  0.65438  1.0000
  C   C48       1.0  0.43293  0.91685  0.67313  1.0000
  C   C49       1.0  0.57008  0.48881  0.67909  1.0000
  C   C50       1.0  0.51452  0.08162  0.67871  1.0000
  C   C51       1.0  0.91609  0.43059  0.66952  1.0000
  C   C52       1.0  0.51496  0.43341  0.83068  1.0000
  C   C53       1.0  0.91797  0.48687  0.82537  1.0000
  C   C54       1.0  0.56994  0.08254  0.83251  1.0000
  C   C55       1.0  0.46555  0.50300  0.79678  1.0000
  C   C56       1.0  0.49953  0.96222  0.79768  1.0000
  C   C57       1.0  0.03682  0.53504  0.78237  1.0000
  C   C58       1.0  0.49869  0.53665  0.70957  1.0000
  C   C59       1.0  0.03573  0.50131  0.69043  1.0000
  C   C60       1.0  0.46625  0.96191  0.70766  1.0000
  C   C61       1.0  0.53667  0.50018  0.71062  1.0000
  C   C62       1.0  0.50323  0.03674  0.71000  1.0000
  C   C63       1.0  0.96124  0.46413  0.69764  1.0000
  C   C64       1.0  0.50351  0.46668  0.79858  1.0000
  C   C65       1.0  0.96235  0.49800  0.78875  1.0000
  C   C66       1.0  0.53660  0.03721  0.80007  1.0000
  C   C67       1.0  0.31043  0.68739  0.73820  1.0000
  C   C68       1.0  0.30958  0.62061  0.74071  1.0000
  C   C69       1.0  0.37611  0.68685  0.74252  1.0000
  C   C70       1.0  0.68808  0.31227  0.75987  1.0000
  C   C71       1.0  0.68848  0.37872  0.75645  1.0000
  C   C72       1.0  0.62206  0.31212  0.75619  1.0000
  C   C73       1.0  0.28728  0.64268  0.73736  1.0000
  C   C74       1.0  0.35403  0.64217  0.74364  1.0000
  C   C75       1.0  0.35487  0.70990  0.74088  1.0000
  C   C76       1.0  0.71104  0.35694  0.75798  1.0000
  C   C77       1.0  0.64404  0.35683  0.75567  1.0000
  C   C78       1.0  0.64367  0.28936  0.75894  1.0000
  C   C79       1.0  0.53535  0.53639  0.66321  1.0000
  C   C80       1.0  0.46691  0.99906  0.66043  1.0000
  C   C81       1.0  0.99787  0.46470  0.64467  1.0000
  C   C82       1.0  0.46692  0.46696  0.84522  1.0000
  C   C83       1.0  0.00019  0.53458  0.83472  1.0000
  C   C84       1.0  0.53588  0.99995  0.84726  1.0000
  N   N1        1.0  0.44842  0.89207  0.25243  1.0000
  N   N2        1.0  0.10640  0.55366  0.23383  1.0000
  N   N3        1.0  0.44438  0.55187  0.25815  1.0000
  N   N4        1.0  0.55518  0.10775  0.25758  1.0000
  N   N5        1.0  0.89190  0.44738  0.24870  1.0000
  N   N6        1.0  0.55327  0.44677  0.25881  1.0000
  N   N7        1.0  0.44774  0.89170  0.74957  1.0000
  N   N8        1.0  0.10628  0.55296  0.73144  1.0000
  N   N9        1.0  0.44606  0.55359  0.75014  1.0000
  N   N10       1.0  0.55437  0.10738  0.75844  1.0000
  N   N11       1.0  0.89186  0.44633  0.74866  1.0000
  N   N12       1.0  0.55501  0.44845  0.75466  1.0000
  O   O1        1.0  0.49474  0.09455  0.10046  1.0000
  O   O2        1.0  0.90198  0.39681  0.10043  1.0000
  O   O3        1.0  0.60177  0.50880  0.11493  1.0000
  O   O4        1.0  0.90573  0.50913  0.40035  1.0000
  O   O5        1.0  0.60335  0.09632  0.41530  1.0000
  O   O6        1.0  0.49247  0.39660  0.40292  1.0000
  O   O7        1.0  0.50912  0.90524  0.40805  1.0000
  O   O8        1.0  0.09621  0.60394  0.38370  1.0000
  O   O9        1.0  0.39615  0.49072  0.40732  1.0000
  O   O10       1.0  0.09260  0.49197  0.08215  1.0000
  O   O11       1.0  0.39980  0.90369  0.09975  1.0000
  O   O12       1.0  0.50475  0.60085  0.10807  1.0000
  O   O13       1.0  0.49455  0.09435  0.59844  1.0000
  O   O14       1.0  0.90210  0.39678  0.59220  1.0000
  O   O15       1.0  0.60319  0.50894  0.60172  1.0000
  O   O16       1.0  0.90580  0.50731  0.90725  1.0000
  O   O17       1.0  0.60354  0.09625  0.90887  1.0000
  O   O18       1.0  0.49485  0.40029  0.90871  1.0000
  O   O19       1.0  0.50750  0.90394  0.90806  1.0000
  O   O20       1.0  0.09600  0.60187  0.89166  1.0000
  O   O21       1.0  0.39824  0.49263  0.90068  1.0000
  O   O22       1.0  0.09241  0.49213  0.57294  1.0000
  O   O23       1.0  0.39998  0.90368  0.59240  1.0000
  O   O24       1.0  0.50651  0.60283  0.60029  1.0000
  C   C85       1.0  0.18425  0.62578  0.14955  1.0000
  C   C86       1.0  0.15573  0.58502  0.20811  1.0000
  C  Sn1       1.0  0.17053  0.56137  0.29254  1.0000
  C  Sn2       1.0  0.21471  0.57894  0.31868  1.0000
  C   C87       1.0  0.24298  0.61976  0.25972  1.0000
  C   C88       1.0  0.22783  0.64315  0.17534  1.0000
  H   H25       1.0  0.17254  0.64388  0.08435  1.0000
  O  Te1       1.0  0.14160  0.52068  0.35017  1.0000
  O  Te2       1.0  0.23035  0.55601  0.40273  1.0000
  H   H26       1.0  0.24992  0.67472  0.13012  1.0000
  Mg  Mg1       1.0  0.17836  0.50186  0.45765  1.0000
  C   C89       1.0  0.36114  0.56874  0.15644  1.0000
  C   C90       1.0  0.37082  0.60698  0.23770  1.0000
  C  Sn3       1.0  0.40889  0.63040  0.32784  1.0000
  C  Sn4       1.0  0.43774  0.61517  0.33653  1.0000
  C   C91       1.0  0.42777  0.57689  0.25470  1.0000
  C   C92       1.0  0.38958  0.55371  0.16489  1.0000
  H   H27       1.0  0.33160  0.55081  0.08687  1.0000
  O  Te3       1.0  0.41807  0.66853  0.40834  1.0000
  O  Te4       1.0  0.47602  0.63795  0.42571  1.0000
  H   H28       1.0  0.38210  0.52412  0.10190  1.0000
  Mg  Mg2       1.0  0.47425  0.68816  0.51435  1.0000
  C   C93       1.0  0.36356  0.79073  0.33364  1.0000
  C   C94       1.0  0.37322  0.76236  0.25261  1.0000
  C  Sn5       1.0  0.41197  0.77753  0.17075  1.0000
  C  Sn6       1.0  0.44154  0.82193  0.17026  1.0000
  C   C95       1.0  0.43159  0.85004  0.25180  1.0000
  C   C96       1.0  0.39271  0.83452  0.33328  1.0000
  H   H29       1.0  0.33349  0.77873  0.39677  1.0000
  O  Te5       1.0  0.42111  0.74875  0.09035  1.0000
  O  Te6       1.0  0.48051  0.83794  0.08947  1.0000
  H   H30       1.0  0.38525  0.85649  0.39610  1.0000
  Mg  Mg3       1.0  0.48080  0.78929  0.99744  1.0000
  C   C97       1.0  0.81486  0.44112  0.15110  1.0000
  C   C98       1.0  0.84288  0.43236  0.23843  1.0000
  C  Sn7       1.0  0.82746  0.39531  0.33379  1.0000
  C  Sn8       1.0  0.78316  0.36656  0.34158  1.0000
  C   C99       1.0  0.75539  0.37560  0.25366  1.0000
  C   C100      1.0  0.77115  0.41276  0.15866  1.0000
  H   H31       1.0  0.82705  0.46986  0.07752  1.0000
  O  Te7       1.0  0.85590  0.38706  0.42032  1.0000
  O  Te8       1.0  0.76689  0.32929  0.43588  1.0000
  H   H32       1.0  0.74945  0.41952  0.09097  1.0000
  Mg  Mg4       1.0  0.81838  0.33208  0.53183  1.0000
  C   C101      1.0  0.56994  0.36226  0.17193  1.0000
  C   C102      1.0  0.61115  0.37588  0.22859  1.0000
  C  Sn9       1.0  0.63481  0.41527  0.31131  1.0000
  C  Sn10      1.0  0.61678  0.44144  0.33764  1.0000
  C   C103      1.0  0.57552  0.42752  0.28058  1.0000
  C   C104      1.0  0.55213  0.38805  0.19791  1.0000
  H   H33       1.0  0.55183  0.33172  0.10805  1.0000
  O  Te9       1.0  0.67595  0.42839  0.36705  1.0000
  O  Te10      1.0  0.63972  0.48095  0.42000  1.0000
  H   H34       1.0  0.52021  0.37750  0.15416  1.0000
  Mg  Mg5       1.0  0.69458  0.48486  0.47267  1.0000
  C   C105      1.0  0.57074  0.20903  0.34028  1.0000
  C   C106      1.0  0.61142  0.23748  0.28210  1.0000
  C  Sn11      1.0  0.63503  0.22231  0.19938  1.0000
  C  Sn12      1.0  0.61750  0.17781  0.17460  1.0000
  C   C107      1.0  0.57677  0.14960  0.23318  1.0000
  C   C108      1.0  0.55342  0.16513  0.31584  1.0000
  H   H35       1.0  0.55267  0.22104  0.40416  1.0000
  O  Te11      1.0  0.67563  0.25118  0.14211  1.0000
  O  Te12      1.0  0.64040  0.16178  0.09228  1.0000
  H   H36       1.0  0.52192  0.14309  0.36078  1.0000
  Mg  Mg6       1.0  0.69443  0.21384  0.03718  1.0000
  C   C109      1.0  0.18385  0.62472  0.64325  1.0000
  C   C110      1.0  0.15555  0.58414  0.70409  1.0000
  C  Sn13      1.0  0.17059  0.56108  0.79138  1.0000
  C  Sn14      1.0  0.21481  0.57907  0.81809  1.0000
  C   C111      1.0  0.24286  0.61970  0.75683  1.0000
  C   C112      1.0  0.22747  0.64249  0.66960  1.0000
  H   H37       1.0  0.17194  0.64236  0.57585  1.0000
  O  Te13      1.0  0.14188  0.52057  0.85125  1.0000
  O  Te14      1.0  0.23070  0.55672  0.90497  1.0000
  H   H38       1.0  0.24939  0.67392  0.62261  1.0000
  Mg  Mg7       1.0  0.17894  0.50261  0.96223  1.0000
  C   C113      1.0  0.42748  0.63679  0.83666  1.0000
  C   C114      1.0  0.38864  0.62520  0.75901  1.0000
  C  Sn15      1.0  0.36521  0.58556  0.67785  1.0000
  C  Sn16      1.0  0.38103  0.55707  0.67461  1.0000
  C   C115      1.0  0.41991  0.56895  0.75277  1.0000
  C   C116      1.0  0.44310  0.60870  0.83358  1.0000
  H   H39       1.0  0.44541  0.66753  0.89926  1.0000
  O  Te15      1.0  0.32648  0.57449  0.60085  1.0000
  O  Te16      1.0  0.35826  0.51725  0.59444  1.0000
  H   H40       1.0  0.47315  0.61765  0.89378  1.0000
  Mg  Mg8       1.0  0.30710  0.51670  0.50748  1.0000
  C   C117      1.0  0.44138  0.81377  0.65551  1.0000
  C   C118      1.0  0.42972  0.84220  0.72097  1.0000
  C  Sn17      1.0  0.39184  0.82705  0.80948  1.0000
  C  Sn18      1.0  0.36521  0.78258  0.83273  1.0000
  C   C119      1.0  0.37717  0.75439  0.76685  1.0000
  C   C120      1.0  0.41514  0.76991  0.67843  1.0000
  H   H41       1.0  0.47077  0.82577  0.58718  1.0000
  O  Te17      1.0  0.38066  0.85589  0.87399  1.0000
  O  Te18      1.0  0.32718  0.76657  0.92074  1.0000
  H   H42       1.0  0.42417  0.74788  0.62786  1.0000
  Mg  Mg9       1.0  0.32570  0.81859  0.98479  1.0000
  C   C121      1.0  0.81491  0.44215  0.66683  1.0000
  C   C122      1.0  0.84289  0.43144  0.74222  1.0000
  C  Sn19      1.0  0.82740  0.39246  0.82387  1.0000
  C  Sn20      1.0  0.78306  0.36374  0.82990  1.0000
  C   C123      1.0  0.75533  0.37474  0.75399  1.0000
  C   C124      1.0  0.77117  0.41383  0.67266  1.0000
  H   H43       1.0  0.82716  0.47238  0.60382  1.0000
  O  Te19      1.0  0.85579  0.38227  0.89859  1.0000
  O  Te20      1.0  0.76672  0.32458  0.91062  1.0000
  H   H44       1.0  0.74951  0.42210  0.61421  1.0000
  Mg  Mg10      1.0  0.81817  0.32512  0.99377  1.0000
  C   C125      1.0  0.62541  0.44186  0.85549  1.0000
  C   C126      1.0  0.58833  0.43264  0.76822  1.0000
  C  Sn21      1.0  0.56587  0.39474  0.67456  1.0000
  C  Sn22      1.0  0.58088  0.36558  0.66842  1.0000
  C   C127      1.0  0.61799  0.37509  0.75626  1.0000
  C   C128      1.0  0.64022  0.41311  0.84956  1.0000
  H   H45       1.0  0.64260  0.47126  0.92775  1.0000
  O  Te21      1.0  0.52890  0.38603  0.58806  1.0000
  O  Te22      1.0  0.55904  0.32747  0.57582  1.0000
  H   H46       1.0  0.66891  0.42023  0.91720  1.0000
  Mg  Mg11      1.0  0.51025  0.32991  0.47922  1.0000
  C   C129      1.0  0.57080  0.20888  0.84744  1.0000
  C   C130      1.0  0.61136  0.23714  0.78770  1.0000
  C  Sn23      1.0  0.63429  0.22178  0.70091  1.0000
  C  Sn24      1.0  0.61618  0.17728  0.67357  1.0000
  C   C131      1.0  0.57556  0.14927  0.73374  1.0000
  C   C132      1.0  0.55290  0.16499  0.82048  1.0000
  H   H47       1.0  0.55325  0.22104  0.91447  1.0000
  O  Te23      1.0  0.67479  0.25045  0.64213  1.0000
  O  Te24      1.0  0.63840  0.16107  0.58716  1.0000
  H   H48       1.0  0.52148  0.14310  0.86662  1.0000
  Mg  Mg12      1.0  0.69256  0.21290  0.53143  1.0000
