data_image0
_chemical_formula_structural       H12C60N16O24SnCSn2CSnTe4Mg2SnCSn2CSnTe4Mg2SnCSn2CSnTe4Mg2SnCSn2CSnTe4Mg2SnCSn2CSnTe4Mg2SnCSn2CSnTe4Mg2SnCSn2CSnTe4Mg2SnCSn2CSnTe4Mg2SnCSn2CSnTe4Mg2SnCSn2CSnTe4Mg2SnCSn2CSnTe4Mg2SnCSn2CSnTe4Mg2
_chemical_formula_sum              "H12 C84 N16 O24 Sn48 Te48 Mg24"
_cell_length_a       31.2629
_cell_length_b       31.3711
_cell_length_c       8.16547
_cell_angle_alpha    95.7845
_cell_angle_beta     103.026
_cell_angle_gamma    120.007

_symmetry_space_group_name_H-M    'P1'
_space_group_IT_number       1

loop_
  _space_group_symop_operation_xyz
  'x, y, z'

loop_
  _atom_site_type_symbol
  _atom_site_label
  _atom_site_symmetry_multiplicity
  _atom_site_fract_x
  _atom_site_fract_y
  _atom_site_fract_z
  _atom_site_occupancy
  H   H1        1.0  0.99796  0.57550  0.98677  1.0000
  H   H2        1.0  0.42647  0.42087  0.06419  1.0000
  H   H3        1.0  0.57826  0.99337  0.97260  1.0000
  H   H4        1.0  0.00239  0.41639  0.00806  1.0000
  H   H5        1.0  0.57128  0.56915  0.92383  1.0000
  H   H6        1.0  0.42796  0.00173  0.07466  1.0000
  H   H7        1.0  0.99801  0.58286  0.49867  1.0000
  H   H8        1.0  0.43154  0.43479  0.58601  1.0000
  H   H9        1.0  0.57608  0.00179  0.47680  1.0000
  H   H10       1.0  0.99950  0.42161  0.50348  1.0000
  H   H11       1.0  0.57013  0.57608  0.40180  1.0000
  H   H12       1.0  0.42388  0.00852  0.56763  1.0000
  C   C1        1.0  0.04129  0.49372  0.97539  1.0000
  C   C2        1.0  0.49742  0.53695  0.97704  1.0000
  C   C3        1.0  0.46294  0.95701  0.05561  1.0000
  C   C4        1.0  0.95930  0.49826  0.01913  1.0000
  C   C5        1.0  0.50066  0.45286  0.01198  1.0000
  C   C6        1.0  0.54327  0.03812  0.99278  1.0000
  C   C7        1.0  0.49902  0.04822  0.52231  1.0000
  C   C8        1.0  0.54127  0.50270  0.46613  1.0000
  C   C9        1.0  0.95832  0.46020  0.52463  1.0000
  C   C10       1.0  0.50093  0.96199  0.52231  1.0000
  C   C11       1.0  0.46045  0.50783  0.52018  1.0000
  C   C12       1.0  0.03867  0.54392  0.47429  1.0000
  C   C13       1.0  0.09130  0.50341  0.95423  1.0000
  C   C14       1.0  0.48410  0.57585  0.95918  1.0000
  C   C15       1.0  0.42524  0.90764  0.08401  1.0000
  C   C16       1.0  0.91081  0.49008  0.04849  1.0000
  C   C17       1.0  0.51333  0.41314  0.02422  1.0000
  C   C18       1.0  0.57979  0.08703  0.95883  1.0000
  C   C19       1.0  0.50864  0.09925  0.51453  1.0000
  C   C20       1.0  0.57979  0.48913  0.44808  1.0000
  C   C21       1.0  0.90870  0.42093  0.54623  1.0000
  C   C22       1.0  0.49048  0.91028  0.52480  1.0000
  C   C23       1.0  0.42251  0.52124  0.54277  1.0000
  C   C24       1.0  0.08653  0.58227  0.44161  1.0000
  C   C25       1.0  0.99901  0.54145  0.99060  1.0000
  C   C26       1.0  0.45767  0.45271  0.03502  1.0000
  C   C27       1.0  0.54608  0.99513  0.99496  1.0000
  C   C28       1.0  0.00126  0.45035  0.00265  1.0000
  C   C29       1.0  0.54051  0.53736  0.95473  1.0000
  C   C30       1.0  0.46031  0.00003  0.05395  1.0000
  C   C31       1.0  0.03956  0.49981  0.47822  1.0000
  C   C32       1.0  0.49837  0.54663  0.46877  1.0000
  C   C33       1.0  0.45915  0.96405  0.54876  1.0000
  C   C34       1.0  0.95840  0.50493  0.52597  1.0000
  C   C35       1.0  0.50271  0.46352  0.51583  1.0000
  C   C36       1.0  0.54086  0.04629  0.49704  1.0000
  C   C37       1.0  0.50202  0.04044  0.02197  1.0000
  C   C38       1.0  0.54089  0.49390  0.97463  1.0000
  C   C39       1.0  0.96005  0.45412  0.02374  1.0000
  C   C40       1.0  0.50439  0.95462  0.02732  1.0000
  C   C41       1.0  0.45778  0.49653  0.01739  1.0000
  C   C42       1.0  0.03987  0.53746  0.96766  1.0000
  C   C43       1.0  0.08914  0.50915  0.45478  1.0000
  C   C44       1.0  0.48458  0.58530  0.44897  1.0000
  C   C45       1.0  0.42126  0.91431  0.57455  1.0000
  C   C46       1.0  0.91041  0.49689  0.55834  1.0000
  C   C47       1.0  0.51545  0.42398  0.53322  1.0000
  C   C48       1.0  0.57906  0.09613  0.47373  1.0000
  C   C49       1.0  0.51088  0.09095  0.00998  1.0000
  C   C50       1.0  0.58013  0.48145  0.95864  1.0000
  C   C51       1.0  0.91083  0.41524  0.04973  1.0000
  C   C52       1.0  0.49435  0.90326  0.03487  1.0000
  C   C53       1.0  0.41950  0.50980  0.03825  1.0000
  C   C54       1.0  0.08773  0.57582  0.93409  1.0000
  C   C55       1.0  0.99828  0.54833  0.49944  1.0000
  C   C56       1.0  0.46113  0.46486  0.54546  1.0000
  C   C57       1.0  0.54343  0.00316  0.49626  1.0000
  C   C58       1.0  0.99916  0.45610  0.50216  1.0000
  C   C59       1.0  0.54035  0.54566  0.44065  1.0000
  C   C60       1.0  0.45660  0.00717  0.54895  1.0000
  N   N1        1.0  0.11802  0.55377  0.93219  1.0000
  N   N2        1.0  0.43684  0.55820  0.99993  1.0000
  N   N3        1.0  0.44560  0.87642  0.06554  1.0000
  N   N4        1.0  0.88225  0.43886  0.06228  1.0000
  N   N5        1.0  0.56162  0.43276  0.99182  1.0000
  N   N6        1.0  0.55961  0.11872  0.97757  1.0000
  N   N7        1.0  0.33219  0.66339  0.99055  1.0000
  N   N8        1.0  0.66863  0.33043  0.01498  1.0000
  N   N9        1.0  0.11662  0.56000  0.43828  1.0000
  N   N10       1.0  0.43799  0.56819  0.49503  1.0000
  N   N11       1.0  0.44184  0.88322  0.55552  1.0000
  N   N12       1.0  0.88070  0.44480  0.56245  1.0000
  N   N13       1.0  0.56183  0.44148  0.48974  1.0000
  N   N14       1.0  0.55823  0.12739  0.48795  1.0000
  N   N15       1.0  0.32991  0.67043  0.48662  1.0000
  N   N16       1.0  0.66753  0.33797  0.51250  1.0000
  O   O1        1.0  0.10734  0.47507  0.95806  1.0000
  O   O2        1.0  0.50841  0.61449  0.91260  1.0000
  O   O3        1.0  0.38537  0.89560  0.11917  1.0000
  O   O4        1.0  0.89785  0.52073  0.06070  1.0000
  O   O5        1.0  0.48835  0.37228  0.05752  1.0000
  O   O6        1.0  0.61883  0.09788  0.91959  1.0000
  O   O7        1.0  0.48000  0.11420  0.52792  1.0000
  O   O8        1.0  0.61859  0.51268  0.40489  1.0000
  O   O9        1.0  0.89392  0.37684  0.54684  1.0000
  O   O10       1.0  0.51723  0.89361  0.50323  1.0000
  O   O11       1.0  0.38598  0.49696  0.59615  1.0000
  O   O12       1.0  0.09810  0.62399  0.41849  1.0000
  O   O13       1.0  0.10405  0.47987  0.45179  1.0000
  O   O14       1.0  0.50812  0.62357  0.39974  1.0000
  O   O15       1.0  0.38124  0.90190  0.60871  1.0000
  O   O16       1.0  0.89870  0.52821  0.58043  1.0000
  O   O17       1.0  0.49205  0.38483  0.57812  1.0000
  O   O18       1.0  0.62002  0.10799  0.44701  1.0000
  O   O19       1.0  0.48208  0.10566  0.02409  1.0000
  O   O20       1.0  0.61969  0.50667  0.92096  1.0000
  O   O21       1.0  0.89676  0.37172  0.05658  1.0000
  O   O22       1.0  0.52121  0.88650  0.01612  1.0000
  O   O23       1.0  0.38145  0.48465  0.08369  1.0000
  O   O24       1.0  0.09925  0.61744  0.90981  1.0000
  C  Sn1       1.0  0.40305  0.64512  0.89263  1.0000
  C   C61       1.0  0.35806  0.63185  0.93661  1.0000
  C  Sn2       1.0  0.24440  0.52180  0.03324  1.0000
  C  Sn3       1.0  0.27238  0.49866  0.08714  1.0000
  C   C62       1.0  0.31735  0.51194  0.04319  1.0000
  C  Sn4       1.0  0.43103  0.62198  0.94653  1.0000
  O  Te1       1.0  0.41993  0.68115  0.79595  1.0000
  O  Te2       1.0  0.19931  0.50913  0.07558  1.0000
  O  Te3       1.0  0.25546  0.46260  0.18388  1.0000
  O  Te4       1.0  0.47610  0.63466  0.90422  1.0000
  Mg  Mg1       1.0  0.19190  0.45798  0.20945  1.0000
  Mg  Mg2       1.0  0.48355  0.68582  0.77043  1.0000
  C  Sn5       1.0  0.35162  0.78409  0.98331  1.0000
  C   C63       1.0  0.30811  0.74584  0.07524  1.0000
  C  Sn6       1.0  0.34221  0.73016  0.13415  1.0000
  C  Sn7       1.0  0.32342  0.67754  0.10039  1.0000
  C   C64       1.0  0.27091  0.64171  0.00849  1.0000
  C  Sn8       1.0  0.33283  0.73146  0.94955  1.0000
  O  Te5       1.0  0.31823  0.80062  0.92563  1.0000
  O  Te6       1.0  0.39458  0.76672  0.22584  1.0000
  O  Te7       1.0  0.35687  0.66102  0.15816  1.0000
  O  Te8       1.0  0.28050  0.69493  0.85789  1.0000
  Mg  Mg3       1.0  0.42484  0.72532  0.27748  1.0000
  Mg  Mg4       1.0  0.25020  0.73629  0.80611  1.0000
  C  Sn9       1.0  0.30847  0.71986  0.99937  1.0000
  C   C65       1.0  0.26992  0.66944  0.90961  1.0000
  C  Sn10      1.0  0.28359  0.63590  0.85217  1.0000
  C  Sn11      1.0  0.33692  0.65309  0.88522  1.0000
  C   C66       1.0  0.37544  0.70347  0.97496  1.0000
  C  Sn12      1.0  0.26574  0.66295  0.03243  1.0000
  O  Te9       1.0  0.19785  0.67863  0.05560  1.0000
  O  Te10      1.0  0.24435  0.58567  0.76264  1.0000
  O  Te11      1.0  0.35146  0.62016  0.82890  1.0000
  O  Te12      1.0  0.30495  0.71314  0.12193  1.0000
  Mg  Mg5       1.0  0.28379  0.55531  0.71235  1.0000
  Mg  Mg6       1.0  0.26556  0.74352  0.17235  1.0000
  C  Sn13      1.0  0.58467  0.33866  0.85508  1.0000
  C   C67       1.0  0.63593  0.35659  0.95286  1.0000
  C  Sn14      1.0  0.56832  0.32691  0.08738  1.0000
  C  Sn15      1.0  0.54503  0.35397  0.12503  1.0000
  C   C68       1.0  0.49380  0.33604  0.02730  1.0000
  C  Sn16      1.0  0.56139  0.36572  0.89273  1.0000
  O  Te13      1.0  0.55697  0.29416  0.72121  1.0000
  O  Te14      1.0  0.61951  0.34409  0.18329  1.0000
  O  Te15      1.0  0.57278  0.39851  0.25903  1.0000
  O  Te16      1.0  0.51023  0.34853  0.79687  1.0000
  Mg  Mg7       1.0  0.64133  0.40664  0.35286  1.0000
  Mg  Mg8       1.0  0.48836  0.28598  0.62735  1.0000
  C  Sn17      1.0  0.56364  0.21088  0.00211  1.0000
  C   C69       1.0  0.66962  0.24887  0.93874  1.0000
  C  Sn18      1.0  0.71791  0.26422  0.91728  1.0000
  C  Sn19      1.0  0.75713  0.31677  0.96015  1.0000
  C   C70       1.0  0.65115  0.27874  0.02351  1.0000
  C  Sn20      1.0  0.60286  0.26343  0.04499  1.0000
  O  Te17      1.0  0.51508  0.19467  0.02254  1.0000
  O  Te18      1.0  0.72691  0.22742  0.85365  1.0000
  O  Te19      1.0  0.80571  0.33296  0.93967  1.0000
  O  Te20      1.0  0.59385  0.30020  0.10860  1.0000
  Mg  Mg9       1.0  0.79931  0.26841  0.84860  1.0000
  Mg  Mg10      1.0  0.52148  0.25926  0.11379  1.0000
  C  Sn21      1.0  0.79551  0.35464  0.10102  1.0000
  C   C71       1.0  0.82211  0.39601  0.03340  1.0000
  C  Sn22      1.0  0.89608  0.49751  0.97799  1.0000
  C  Sn23      1.0  0.84637  0.48327  0.99053  1.0000
  C   C72       1.0  0.72374  0.36782  0.05814  1.0000
  C  Sn24      1.0  0.74580  0.34040  0.11356  1.0000
  O  Te21      1.0  0.81835  0.32780  0.15563  1.0000
  O  Te22      1.0  0.92341  0.53872  0.91079  1.0000
  O  Te23      1.0  0.82354  0.51015  0.93584  1.0000
  O  Te24      1.0  0.71850  0.29922  0.18075  1.0000
  Mg  Mg11      1.0  0.87605  0.56343  0.85361  1.0000
  Mg  Mg12      1.0  0.76584  0.27450  0.23805  1.0000
  C  Sn25      1.0  0.56045  0.35233  0.42367  1.0000
  C   C73       1.0  0.57972  0.40218  0.51050  1.0000
  C  Sn26      1.0  0.63332  0.43676  0.58833  1.0000
  C  Sn27      1.0  0.66839  0.42120  0.57910  1.0000
  C   C74       1.0  0.64912  0.37138  0.49229  1.0000
  C  Sn28      1.0  0.59552  0.33677  0.41443  1.0000
  O  Te25      1.0  0.50672  0.31840  0.34679  1.0000
  O  Te26      1.0  0.65166  0.48639  0.67446  1.0000
  O  Te27      1.0  0.72216  0.45517  0.65607  1.0000
  O  Te28      1.0  0.57718  0.28717  0.32832  1.0000
  Mg  Mg13      1.0  0.72821  0.51865  0.75858  1.0000
  Mg  Mg14      1.0  0.50065  0.25489  0.24408  1.0000
  C  Sn29      1.0  0.78769  0.44099  0.51926  1.0000
  C   C75       1.0  0.82538  0.43059  0.59149  1.0000
  C  Sn30      1.0  0.81057  0.38329  0.62596  1.0000
  C  Sn31      1.0  0.75696  0.34558  0.58733  1.0000
  C   C76       1.0  0.71929  0.35598  0.51511  1.0000
  C  Sn32      1.0  0.73407  0.40328  0.48062  1.0000
  O  Te29      1.0  0.80339  0.48854  0.48587  1.0000
  O  Te30      1.0  0.84897  0.37379  0.69827  1.0000
  O  Te31      1.0  0.74128  0.29800  0.62079  1.0000
  O  Te32      1.0  0.69571  0.41278  0.40833  1.0000
  Mg  Mg15      1.0  0.80811  0.30320  0.71999  1.0000
  Mg  Mg16      1.0  0.73652  0.48335  0.38648  1.0000
  C  Sn33      1.0  0.64025  0.23848  0.37478  1.0000
  C   C77       1.0  0.63199  0.27554  0.44171  1.0000
  C  Sn34      1.0  0.60161  0.26614  0.55159  1.0000
  C  Sn35      1.0  0.57905  0.21873  0.59560  1.0000
  C   C78       1.0  0.58732  0.18171  0.52872  1.0000
  C  Sn36      1.0  0.61769  0.19106  0.41879  1.0000
  O  Te33      1.0  0.67076  0.24869  0.26517  1.0000
  O  Te34      1.0  0.59389  0.30378  0.61684  1.0000
  O  Te35      1.0  0.54852  0.20854  0.70531  1.0000
  O  Te36      1.0  0.62542  0.15347  0.35358  1.0000
  Mg  Mg17      1.0  0.54931  0.27186  0.76133  1.0000
  Mg  Mg18      1.0  0.67000  0.18535  0.20917  1.0000
  C  Sn37      1.0  0.34845  0.56870  0.49613  1.0000
  C   C79       1.0  0.39368  0.58298  0.45245  1.0000
  C  Sn38      1.0  0.42555  0.63266  0.44065  1.0000
  C  Sn39      1.0  0.41196  0.66883  0.47327  1.0000
  C   C80       1.0  0.36676  0.65454  0.51694  1.0000
  C  Sn40      1.0  0.33485  0.60487  0.52875  1.0000
  O  Te37      1.0  0.31717  0.51883  0.50720  1.0000
  O  Te38      1.0  0.47056  0.64604  0.39672  1.0000
  O  Te39      1.0  0.44329  0.71873  0.46216  1.0000
  O  Te40      1.0  0.28987  0.59149  0.57268  1.0000
  Mg  Mg19      1.0  0.50064  0.71864  0.39802  1.0000
  Mg  Mg20      1.0  0.25979  0.51891  0.57150  1.0000
  C  Sn41      1.0  0.24715  0.65842  0.58976  1.0000
  C   C81       1.0  0.27364  0.64215  0.51132  1.0000
  C  Sn42      1.0  0.24599  0.59766  0.37732  1.0000
  C  Sn43      1.0  0.19069  0.56885  0.32043  1.0000
  C   C82       1.0  0.16423  0.58513  0.39882  1.0000
  C  Sn44      1.0  0.19186  0.62961  0.53287  1.0000
  O  Te41      1.0  0.27559  0.70301  0.72350  1.0000
  O  Te42      1.0  0.27334  0.58215  0.30094  1.0000
  O  Te43      1.0  0.16226  0.52423  0.18658  1.0000
  O  Te44      1.0  0.16454  0.64513  0.60920  1.0000
  Mg  Mg21      1.0  0.21715  0.51876  0.12332  1.0000
  Mg  Mg22      1.0  0.22068  0.70852  0.78676  1.0000
  C  Sn45      1.0  0.41383  0.76958  0.67479  1.0000
  C   C83       1.0  0.36250  0.73292  0.57226  1.0000
  C  Sn46      1.0  0.33623  0.74430  0.43923  1.0000
  C  Sn47      1.0  0.36180  0.79332  0.40793  1.0000
  C   C84       1.0  0.41310  0.82995  0.51040  1.0000
  C  Sn48      1.0  0.43940  0.81860  0.64349  1.0000
  O  Te45      1.0  0.43935  0.75737  0.80708  1.0000
  O  Te46      1.0  0.28492  0.70703  0.33849  1.0000
  O  Te47      1.0  0.33624  0.80551  0.27551  1.0000
  O  Te48      1.0  0.49068  0.85584  0.74418  1.0000
  Mg  Mg23      1.0  0.26659  0.74192  0.17345  1.0000
  Mg  Mg24      1.0  0.50906  0.82098  0.90918  1.0000
