data_image0
_chemical_formula_structural       H60C144N12O24SnCSn2CSnTe4Mg2SnCSn2CSnTe4Mg2SnCSn2CSnTe4Mg2SnCSn2CSnTe4Mg2SnCSn2CSnTe4Mg2SnCSn2CSnTe4Mg2
_chemical_formula_sum              "H60 C156 N12 O24 Sn24 Te24 Mg12"
_cell_length_a       37.1751
_cell_length_b       37.0061
_cell_length_c       7.99153
_cell_angle_alpha    90.3846
_cell_angle_beta     90.1735
_cell_angle_gamma    120.185

_symmetry_space_group_name_H-M    'P1'
_space_group_IT_number       1

loop_
  _space_group_symop_operation_xyz
  'x, y, z'

loop_
  _atom_site_type_symbol
  _atom_site_label
  _atom_site_symmetry_multiplicity
  _atom_site_fract_x
  _atom_site_fract_y
  _atom_site_fract_z
  _atom_site_occupancy
  H   H1        1.0  0.43919  0.03760  0.04943  1.0000
  H   H2        1.0  0.95910  0.39986  0.05419  1.0000
  H   H3        1.0  0.59640  0.56012  0.04526  1.0000
  H   H4        1.0  0.96119  0.56039  0.46199  1.0000
  H   H5        1.0  0.60163  0.04160  0.43827  1.0000
  H   H6        1.0  0.43664  0.39537  0.41611  1.0000
  H   H7        1.0  0.56204  0.96249  0.44920  1.0000
  H   H8        1.0  0.03985  0.59987  0.45957  1.0000
  H   H9        1.0  0.39659  0.43394  0.42358  1.0000
  H   H10       1.0  0.03777  0.43958  0.05057  1.0000
  H   H11       1.0  0.39993  0.95844  0.05650  1.0000
  H   H12       1.0  0.55645  0.59885  0.05470  1.0000
  H   H13       1.0  0.23645  0.66613  0.10088  1.0000
  H   H14       1.0  0.23642  0.57138  0.41049  1.0000
  H   H15       1.0  0.66586  0.43241  0.38879  1.0000
  H   H16       1.0  0.57170  0.33265  0.08644  1.0000
  H   H17       1.0  0.15952  0.62779  0.10223  1.0000
  H   H18       1.0  0.15938  0.53300  0.41121  1.0000
  H   H19       1.0  0.62652  0.46974  0.37424  1.0000
  H   H20       1.0  0.53192  0.36973  0.07590  1.0000
  H   H21       1.0  0.29492  0.70547  0.25650  1.0000
  H   H22       1.0  0.29218  0.58807  0.25088  1.0000
  H   H23       1.0  0.40935  0.70323  0.25851  1.0000
  H   H24       1.0  0.70462  0.29537  0.25905  1.0000
  H   H25       1.0  0.70542  0.41188  0.25418  1.0000
  H   H26       1.0  0.58927  0.29561  0.24780  1.0000
  H   H27       1.0  0.44372  0.03758  0.54220  1.0000
  H   H28       1.0  0.95917  0.40158  0.57888  1.0000
  H   H29       1.0  0.59855  0.55997  0.52649  1.0000
  H   H30       1.0  0.96298  0.56616  0.95630  1.0000
  H   H31       1.0  0.60308  0.04083  0.95466  1.0000
  H   H32       1.0  0.44171  0.40000  0.93076  1.0000
  H   H33       1.0  0.56373  0.96175  0.95988  1.0000
  H   H34       1.0  0.04163  0.60530  0.95147  1.0000
  H   H35       1.0  0.40203  0.43880  0.93513  1.0000
  H   H36       1.0  0.03786  0.44076  0.57303  1.0000
  H   H37       1.0  0.40375  0.95826  0.55240  1.0000
  H   H38       1.0  0.55867  0.59873  0.52886  1.0000
  H   H39       1.0  0.23896  0.66845  0.60979  1.0000
  H   H40       1.0  0.33188  0.56819  0.59830  1.0000
  H   H41       1.0  0.43174  0.76145  0.61486  1.0000
  H   H42       1.0  0.33460  0.76197  0.90514  1.0000
  H   H43       1.0  0.42842  0.66377  0.90729  1.0000
  H   H44       1.0  0.23623  0.56898  0.89623  1.0000
  H   H45       1.0  0.66662  0.43099  0.89031  1.0000
  H   H46       1.0  0.57192  0.33245  0.58551  1.0000
  H   H47       1.0  0.16215  0.63205  0.61297  1.0000
  H   H48       1.0  0.37092  0.53030  0.58861  1.0000
  H   H49       1.0  0.47092  0.83875  0.62006  1.0000
  H   H50       1.0  0.37390  0.83920  0.90979  1.0000
  H   H51       1.0  0.46724  0.62577  0.89705  1.0000
  H   H52       1.0  0.15938  0.53250  0.89818  1.0000
  H   H53       1.0  0.62806  0.46920  0.87826  1.0000
  H   H54       1.0  0.53352  0.37107  0.57308  1.0000
  H   H55       1.0  0.29628  0.70506  0.75541  1.0000
  H   H56       1.0  0.29361  0.58766  0.75251  1.0000
  H   H57       1.0  0.41068  0.70283  0.75713  1.0000
  H   H58       1.0  0.70630  0.29590  0.75848  1.0000
  H   H59       1.0  0.70544  0.41154  0.75284  1.0000
  H   H60       1.0  0.59016  0.29466  0.74203  1.0000
  C   C1        1.0  0.57513  0.09105  0.31866  1.0000
  C   C2        1.0  0.90988  0.48412  0.34021  1.0000
  C   C3        1.0  0.51294  0.42245  0.29843  1.0000
  C   C4        1.0  0.90894  0.42456  0.18492  1.0000
  C   C5        1.0  0.51541  0.08977  0.16694  1.0000
  C   C6        1.0  0.57164  0.48316  0.15256  1.0000
  C   C7        1.0  0.42538  0.90894  0.18598  1.0000
  C   C8        1.0  0.08912  0.51552  0.17658  1.0000
  C   C9        1.0  0.48048  0.57170  0.17187  1.0000
  C   C10       1.0  0.08977  0.57482  0.33263  1.0000
  C   C11       1.0  0.48528  0.91055  0.33715  1.0000
  C   C12       1.0  0.42136  0.51105  0.31547  1.0000
  C   C13       1.0  0.49293  0.04340  0.17236  1.0000
  C   C14       1.0  0.95513  0.44839  0.18406  1.0000
  C   C15       1.0  0.54807  0.50563  0.16270  1.0000
  C   C16       1.0  0.95596  0.50709  0.33375  1.0000
  C   C17       1.0  0.55217  0.04475  0.31607  1.0000
  C   C18       1.0  0.48979  0.44547  0.29967  1.0000
  C   C19       1.0  0.50828  0.95678  0.32613  1.0000
  C   C20       1.0  0.04365  0.55124  0.33015  1.0000
  C   C21       1.0  0.44509  0.48862  0.30775  1.0000
  C   C22       1.0  0.04295  0.49269  0.18015  1.0000
  C   C23       1.0  0.44909  0.95527  0.18160  1.0000
  C   C24       1.0  0.50360  0.54876  0.17238  1.0000
  C   C25       1.0  0.45296  0.02056  0.10503  1.0000
  C   C26       1.0  0.97682  0.43094  0.10995  1.0000
  C   C27       1.0  0.56545  0.54590  0.09934  1.0000
  C   C28       1.0  0.97834  0.54687  0.40490  1.0000
  C   C29       1.0  0.57032  0.02339  0.38649  1.0000
  C   C30       1.0  0.44997  0.42686  0.36688  1.0000
  C   C31       1.0  0.54840  0.97950  0.39201  1.0000
  C   C32       1.0  0.02204  0.56888  0.40307  1.0000
  C   C33       1.0  0.42770  0.44831  0.37089  1.0000
  C   C34       1.0  0.02057  0.45299  0.10808  1.0000
  C   C35       1.0  0.43113  0.97663  0.10940  1.0000
  C   C36       1.0  0.54329  0.56741  0.10436  1.0000
  C   C37       1.0  0.21989  0.63740  0.17171  1.0000
  C   C38       1.0  0.21980  0.58343  0.33939  1.0000
  C   C39       1.0  0.63703  0.41877  0.31675  1.0000
  C   C40       1.0  0.58343  0.36218  0.15345  1.0000
  C   C41       1.0  0.17654  0.61591  0.17140  1.0000
  C   C42       1.0  0.17646  0.56169  0.34072  1.0000
  C   C43       1.0  0.61492  0.43993  0.31004  1.0000
  C   C44       1.0  0.56092  0.38293  0.14620  1.0000
  C   C45       1.0  0.51178  0.02233  0.24581  1.0000
  C   C46       1.0  0.97722  0.48869  0.25760  1.0000
  C   C47       1.0  0.50796  0.48625  0.23397  1.0000
  C   C48       1.0  0.48960  0.97779  0.25075  1.0000
  C   C49       1.0  0.02161  0.51107  0.25563  1.0000
  C   C50       1.0  0.48539  0.50803  0.23830  1.0000
  C   C51       1.0  0.31130  0.68802  0.25616  1.0000
  C   C52       1.0  0.30980  0.62207  0.25236  1.0000
  C   C53       1.0  0.37552  0.68673  0.25674  1.0000
  C   C54       1.0  0.68795  0.31252  0.25739  1.0000
  C   C55       1.0  0.68833  0.37789  0.25423  1.0000
  C   C56       1.0  0.62312  0.31262  0.25024  1.0000
  C   C57       1.0  0.28831  0.64419  0.25400  1.0000
  C   C58       1.0  0.35342  0.64285  0.25301  1.0000
  C   C59       1.0  0.35497  0.70978  0.25859  1.0000
  C   C60       1.0  0.71044  0.35637  0.25876  1.0000
  C   C61       1.0  0.64467  0.35649  0.24883  1.0000
  C   C62       1.0  0.64432  0.29021  0.25354  1.0000
  C   C63       1.0  0.15510  0.57804  0.25558  1.0000
  C   C64       1.0  0.57669  0.42163  0.22625  1.0000
  C   C65       1.0  0.24230  0.62152  0.25470  1.0000
  C   C66       1.0  0.62162  0.37940  0.23987  1.0000
  C   C67       1.0  0.57780  0.09073  0.82691  1.0000
  C   C68       1.0  0.91100  0.48890  0.84404  1.0000
  C   C69       1.0  0.51615  0.42488  0.79956  1.0000
  C   C70       1.0  0.90986  0.42825  0.69710  1.0000
  C   C71       1.0  0.51843  0.08932  0.67120  1.0000
  C   C72       1.0  0.57467  0.48447  0.64843  1.0000
  C   C73       1.0  0.42774  0.90887  0.69139  1.0000
  C   C74       1.0  0.08958  0.51768  0.68517  1.0000
  C   C75       1.0  0.48368  0.57342  0.65677  1.0000
  C   C76       1.0  0.09126  0.57878  0.83034  1.0000
  C   C77       1.0  0.48725  0.90991  0.84381  1.0000
  C   C78       1.0  0.42570  0.51420  0.81237  1.0000
  C   C79       1.0  0.49595  0.04305  0.67643  1.0000
  C   C80       1.0  0.95594  0.45156  0.69867  1.0000
  C   C81       1.0  0.55081  0.50674  0.65202  1.0000
  C   C82       1.0  0.95718  0.51159  0.83777  1.0000
  C   C83       1.0  0.55437  0.04437  0.82725  1.0000
  C   C84       1.0  0.49335  0.44816  0.79934  1.0000
  C   C85       1.0  0.51029  0.95622  0.83510  1.0000
  C   C86       1.0  0.04506  0.55538  0.83133  1.0000
  C   C87       1.0  0.44924  0.49170  0.80553  1.0000
  C   C88       1.0  0.04354  0.49520  0.69260  1.0000
  C   C89       1.0  0.45178  0.95511  0.68647  1.0000
  C   C90       1.0  0.50653  0.55016  0.65665  1.0000
  C   C91       1.0  0.45663  0.02038  0.60336  1.0000
  C   C92       1.0  0.97724  0.43307  0.63048  1.0000
  C   C93       1.0  0.56783  0.54632  0.58223  1.0000
  C   C94       1.0  0.97993  0.55203  0.90280  1.0000
  C   C95       1.0  0.57205  0.02280  0.90011  1.0000
  C   C96       1.0  0.45445  0.43065  0.87396  1.0000
  C   C97       1.0  0.55016  0.97889  0.90341  1.0000
  C   C98       1.0  0.02369  0.57380  0.89989  1.0000
  C   C99       1.0  0.43242  0.45230  0.87661  1.0000
  C   C100      1.0  0.02091  0.45482  0.62726  1.0000
  C   C101      1.0  0.43455  0.97648  0.60865  1.0000
  C   C102      1.0  0.54573  0.56791  0.58420  1.0000
  C   C103      1.0  0.22183  0.63912  0.67655  1.0000
  C   C104      1.0  0.36117  0.58073  0.66643  1.0000
  C   C105      1.0  0.41918  0.77812  0.68298  1.0000
  C   C106      1.0  0.36409  0.77846  0.83986  1.0000
  C   C107      1.0  0.41602  0.63509  0.83376  1.0000
  C   C108      1.0  0.22028  0.58267  0.83100  1.0000
  C   C109      1.0  0.63794  0.41797  0.81758  1.0000
  C   C110      1.0  0.58405  0.36204  0.65241  1.0000
  C   C111      1.0  0.17849  0.61871  0.67725  1.0000
  C   C112      1.0  0.38299  0.55925  0.65996  1.0000
  C   C113      1.0  0.44151  0.82169  0.68532  1.0000
  C   C114      1.0  0.38614  0.82198  0.84395  1.0000
  C   C115      1.0  0.43809  0.61387  0.82882  1.0000
  C   C116      1.0  0.17696  0.56197  0.83318  1.0000
  C   C117      1.0  0.61642  0.43972  0.81150  1.0000
  C   C118      1.0  0.56233  0.38361  0.64437  1.0000
  C   C119      1.0  0.51423  0.02198  0.75454  1.0000
  C   C120      1.0  0.97824  0.49236  0.76716  1.0000
  C   C121      1.0  0.51110  0.48815  0.72649  1.0000
  C   C122      1.0  0.49193  0.97744  0.75887  1.0000
  C   C123      1.0  0.02260  0.51447  0.76390  1.0000
  C   C124      1.0  0.48876  0.51016  0.72940  1.0000
  C   C125      1.0  0.31268  0.68764  0.75506  1.0000
  C   C126      1.0  0.31112  0.62166  0.75337  1.0000
  C   C127      1.0  0.37685  0.68639  0.75609  1.0000
  C   C128      1.0  0.68925  0.31266  0.75555  1.0000
  C   C129      1.0  0.68875  0.37755  0.75255  1.0000
  C   C130      1.0  0.62400  0.31192  0.74628  1.0000
  C   C131      1.0  0.28961  0.64381  0.75354  1.0000
  C   C132      1.0  0.35475  0.64253  0.75428  1.0000
  C   C133      1.0  0.35632  0.70945  0.75661  1.0000
  C   C134      1.0  0.71131  0.35654  0.75686  1.0000
  C   C135      1.0  0.64513  0.35576  0.74664  1.0000
  C   C136      1.0  0.64560  0.28990  0.75014  1.0000
  C   C137      1.0  0.15621  0.58013  0.75617  1.0000
  C   C138      1.0  0.42147  0.57612  0.74086  1.0000
  C   C139      1.0  0.42481  0.84339  0.76645  1.0000
  C   C140      1.0  0.57864  0.42231  0.72490  1.0000
  C   C141      1.0  0.38008  0.75567  0.75966  1.0000
  C   C142      1.0  0.24359  0.62166  0.75346  1.0000
  C   C143      1.0  0.37737  0.61915  0.75199  1.0000
  C   C144      1.0  0.62215  0.37874  0.73899  1.0000
  N   N1        1.0  0.44519  0.88913  0.26298  1.0000
  N   N2        1.0  0.10994  0.55543  0.25480  1.0000
  N   N3        1.0  0.44049  0.55152  0.24497  1.0000
  N   N4        1.0  0.55538  0.11100  0.24245  1.0000
  N   N5        1.0  0.88891  0.44392  0.26449  1.0000
  N   N6        1.0  0.55298  0.44300  0.22506  1.0000
  N   N7        1.0  0.44744  0.88874  0.76687  1.0000
  N   N8        1.0  0.11104  0.55827  0.75763  1.0000
  N   N9        1.0  0.44428  0.55384  0.73501  1.0000
  N   N10       1.0  0.55805  0.11065  0.74984  1.0000
  N   N11       1.0  0.88986  0.44817  0.77248  1.0000
  N   N12       1.0  0.55561  0.44438  0.72188  1.0000
  O   O1        1.0  0.50021  0.10887  0.09978  1.0000
  O   O2        1.0  0.88898  0.38989  0.11819  1.0000
  O   O3        1.0  0.60571  0.49852  0.08408  1.0000
  O   O4        1.0  0.89067  0.49898  0.40921  1.0000
  O   O5        1.0  0.60958  0.11125  0.38525  1.0000
  O   O6        1.0  0.49838  0.38747  0.35923  1.0000
  O   O7        1.0  0.50005  0.89163  0.40889  1.0000
  O   O8        1.0  0.10955  0.60944  0.39973  1.0000
  O   O9        1.0  0.38701  0.49548  0.38170  1.0000
  O   O10       1.0  0.10844  0.50070  0.10817  1.0000
  O   O11       1.0  0.39027  0.88864  0.12503  1.0000
  O   O12       1.0  0.49522  0.60651  0.10919  1.0000
  O   O13       1.0  0.50357  0.10831  0.60061  1.0000
  O   O14       1.0  0.88991  0.39337  0.63236  1.0000
  O   O15       1.0  0.60923  0.49994  0.58424  1.0000
  O   O16       1.0  0.89197  0.50454  0.90869  1.0000
  O   O17       1.0  0.61250  0.11094  0.89159  1.0000
  O   O18       1.0  0.50174  0.39051  0.86589  1.0000
  O   O19       1.0  0.50182  0.89081  0.91580  1.0000
  O   O20       1.0  0.11141  0.61411  0.89118  1.0000
  O   O21       1.0  0.39195  0.49954  0.88295  1.0000
  O   O22       1.0  0.10819  0.50197  0.61749  1.0000
  O   O23       1.0  0.39244  0.88883  0.63203  1.0000
  O   O24       1.0  0.49822  0.60798  0.59195  1.0000
  C  Sn1       1.0  0.81242  0.37094  0.31479  1.0000
  C   C145      1.0  0.83992  0.40927  0.24190  1.0000
  C  Sn2       1.0  0.82577  0.43574  0.18701  1.0000
  C  Sn3       1.0  0.78325  0.42366  0.20545  1.0000
  C   C146      1.0  0.75578  0.38536  0.27833  1.0000
  C  Sn4       1.0  0.76990  0.35886  0.33323  1.0000
  O  Te1       1.0  0.82725  0.34497  0.36878  1.0000
  O  Te2       1.0  0.85385  0.47390  0.11447  1.0000
  O  Te3       1.0  0.76844  0.44967  0.15138  1.0000
  O  Te4       1.0  0.74185  0.32072  0.40575  1.0000
  Mg  Mg1       1.0  0.81872  0.49853  0.06052  1.0000
  Mg  Mg2       1.0  0.77695  0.29608  0.45982  1.0000
  C  Sn5       1.0  0.42715  0.63846  0.29388  1.0000
  C   C147      1.0  0.38831  0.62693  0.22375  1.0000
  C  Sn6       1.0  0.36147  0.58566  0.17271  1.0000
  C  Sn7       1.0  0.37369  0.55527  0.19226  1.0000
  C   C148      1.0  0.41250  0.56680  0.26239  1.0000
  C  Sn8       1.0  0.43937  0.60807  0.31344  1.0000
  O  Te5       1.0  0.45348  0.67990  0.34404  1.0000
  O  Te6       1.0  0.32281  0.57489  0.10287  1.0000
  O  Te7       1.0  0.34733  0.51380  0.14203  1.0000
  O  Te8       1.0  0.47801  0.61884  0.38326  1.0000
  Mg  Mg3       1.0  0.29783  0.51442  0.05379  1.0000
  Mg  Mg4       1.0  0.50300  0.67929  0.43247  1.0000
  C  Sn9       1.0  0.35961  0.78799  0.31340  1.0000
  C   C149      1.0  0.37071  0.76082  0.23821  1.0000
  C  Sn10      1.0  0.41142  0.77563  0.18402  1.0000
  C  Sn11      1.0  0.44167  0.81850  0.20551  1.0000
  C   C150      1.0  0.43057  0.84564  0.28069  1.0000
  C  Sn12      1.0  0.38986  0.83085  0.33490  1.0000
  O  Te9       1.0  0.31873  0.77250  0.36664  1.0000
  O  Te10      1.0  0.42177  0.74787  0.10914  1.0000
  O  Te11      1.0  0.48258  0.83397  0.15220  1.0000
  O  Te12      1.0  0.37951  0.85859  0.40975  1.0000
  Mg  Mg5       1.0  0.48154  0.78391  0.05735  1.0000
  Mg  Mg6       1.0  0.31976  0.82259  0.46166  1.0000
  C  Sn13      1.0  0.62858  0.21255  0.11755  1.0000
  C   C151      1.0  0.61821  0.23931  0.20123  1.0000
  C  Sn14      1.0  0.58804  0.22402  0.32616  1.0000
  C  Sn15      1.0  0.56782  0.18108  0.36841  1.0000
  C   C152      1.0  0.57819  0.15434  0.28477  1.0000
  C  Sn16      1.0  0.60836  0.16961  0.15980  1.0000
  O  Te13      1.0  0.66068  0.23091  0.99308  1.0000
  O  Te14      1.0  0.57819  0.25137  0.40803  1.0000
  O  Te15      1.0  0.53753  0.16512  0.49299  1.0000
  O  Te16      1.0  0.61821  0.14228  0.07798  1.0000
  Mg  Mg7       1.0  0.53489  0.21476  0.56878  1.0000
  Mg  Mg8       1.0  0.66336  0.18125  0.91728  1.0000
  C  Sn17      1.0  0.63166  0.21192  0.62191  1.0000
  C   C153      1.0  0.62016  0.23873  0.69763  1.0000
  C  Sn18      1.0  0.58885  0.22369  0.81792  1.0000
  C  Sn19      1.0  0.56862  0.18097  0.86357  1.0000
  C   C154      1.0  0.58013  0.15419  0.78790  1.0000
  C  Sn20      1.0  0.61144  0.16920  0.66756  1.0000
  O  Te17      1.0  0.66305  0.22764  0.50197  1.0000
  O  Te18      1.0  0.57787  0.25108  0.89184  1.0000
  O  Te19      1.0  0.53722  0.16527  0.98362  1.0000
  O  Te20      1.0  0.62242  0.14184  0.59369  1.0000
  Mg  Mg9       1.0  0.53144  0.21248  0.04886  1.0000
  Mg  Mg10      1.0  0.66701  0.17803  0.43673  1.0000
  C  Sn21      1.0  0.81369  0.44532  0.72350  1.0000
  C   C155      1.0  0.84063  0.43401  0.79787  1.0000
  C  Sn22      1.0  0.82605  0.39275  0.84623  1.0000
  C  Sn23      1.0  0.78365  0.36215  0.81961  1.0000
  C   C156      1.0  0.75674  0.37346  0.74526  1.0000
  C  Sn24      1.0  0.77130  0.41472  0.69688  1.0000
  O  Te21      1.0  0.82895  0.48675  0.67614  1.0000
  O  Te22      1.0  0.85357  0.38219  0.92039  1.0000
  O  Te23      1.0  0.76840  0.32069  0.86705  1.0000
  O  Te24      1.0  0.74380  0.42528  0.62273  1.0000
  Mg  Mg11      1.0  0.81800  0.32164  0.96326  1.0000
  Mg  Mg12      1.0  0.77934  0.48581  0.57974  1.0000
