data_image0
_chemical_formula_structural       H36C96N16O24C2Sn2C2HTe2HMgC2Sn2C2HTe2HMgC2Sn2C2HTe2HMgC2Sn2C2HTe2HMgC2Sn2C2HTe2HMgC2Sn2C2HTe2HMg
_chemical_formula_sum              "H48 C120 N16 O24 Sn12 Te12 Mg6"
_cell_length_a       31.2629
_cell_length_b       31.3711
_cell_length_c       8.16547
_cell_angle_alpha    95.7845
_cell_angle_beta     103.026
_cell_angle_gamma    120.007

_symmetry_space_group_name_H-M    'P1'
_space_group_IT_number       1

loop_
  _space_group_symop_operation_xyz
  'x, y, z'

loop_
  _atom_site_type_symbol
  _atom_site_label
  _atom_site_symmetry_multiplicity
  _atom_site_fract_x
  _atom_site_fract_y
  _atom_site_fract_z
  _atom_site_occupancy
  H   H1        1.0  0.30591  0.57598  0.08835  1.0000
  H   H2        1.0  0.28208  0.69745  0.12249  1.0000
  H   H3        1.0  0.70867  0.42839  0.16739  1.0000
  H   H4        1.0  0.58490  0.27667  0.11271  1.0000
  H   H5        1.0  0.68528  0.26814  0.37384  1.0000
  H   H6        1.0  0.41653  0.69923  0.39781  1.0000
  H   H7        1.0  0.34937  0.52975  0.08524  1.0000
  H   H8        1.0  0.18905  0.65030  0.10001  1.0000
  H   H9        1.0  0.66168  0.47216  0.16502  1.0000
  H   H10       1.0  0.53589  0.18542  0.08727  1.0000
  H   H11       1.0  0.63871  0.17791  0.36705  1.0000
  H   H12       1.0  0.46383  0.65651  0.40527  1.0000
  H   H13       1.0  0.99796  0.57550  0.98677  1.0000
  H   H14       1.0  0.42647  0.42087  0.06419  1.0000
  H   H15       1.0  0.57826  0.99337  0.97260  1.0000
  H   H16       1.0  0.00239  0.41639  0.00806  1.0000
  H   H17       1.0  0.57128  0.56915  0.92383  1.0000
  H   H18       1.0  0.42796  0.00173  0.07466  1.0000
  H   H19       1.0  0.30559  0.58304  0.58461  1.0000
  H   H20       1.0  0.58532  0.28672  0.61675  1.0000
  H   H21       1.0  0.56757  0.29210  0.83451  1.0000
  H   H22       1.0  0.68954  0.26238  0.88293  1.0000
  H   H23       1.0  0.41816  0.69036  0.89975  1.0000
  H   H24       1.0  0.25807  0.56738  0.78922  1.0000
  H   H25       1.0  0.35087  0.53880  0.58267  1.0000
  H   H26       1.0  0.53678  0.19566  0.60506  1.0000
  H   H27       1.0  0.52198  0.33745  0.81817  1.0000
  H   H28       1.0  0.64313  0.17160  0.86928  1.0000
  H   H29       1.0  0.46451  0.64680  0.91184  1.0000
  H   H30       1.0  0.16524  0.51964  0.76597  1.0000
  H   H31       1.0  0.99801  0.58286  0.49867  1.0000
  H   H32       1.0  0.43154  0.43479  0.58601  1.0000
  H   H33       1.0  0.57608  0.00179  0.47680  1.0000
  H   H34       1.0  0.99950  0.42161  0.50348  1.0000
  H   H35       1.0  0.57013  0.57608  0.40180  1.0000
  H   H36       1.0  0.42388  0.00852  0.56763  1.0000
  C   C1        1.0  0.04129  0.49372  0.97539  1.0000
  C   C2        1.0  0.49742  0.53695  0.97704  1.0000
  C   C3        1.0  0.46294  0.95701  0.05561  1.0000
  C   C4        1.0  0.95930  0.49826  0.01913  1.0000
  C   C5        1.0  0.50066  0.45286  0.01198  1.0000
  C   C6        1.0  0.54327  0.03812  0.99278  1.0000
  C   C7        1.0  0.49902  0.04822  0.52231  1.0000
  C   C8        1.0  0.54127  0.50270  0.46613  1.0000
  C   C9        1.0  0.95832  0.46020  0.52463  1.0000
  C   C10       1.0  0.50093  0.96199  0.52231  1.0000
  C   C11       1.0  0.46045  0.50783  0.52018  1.0000
  C   C12       1.0  0.03867  0.54392  0.47429  1.0000
  C   C13       1.0  0.09130  0.50341  0.95423  1.0000
  C   C14       1.0  0.48410  0.57585  0.95918  1.0000
  C   C15       1.0  0.42524  0.90764  0.08401  1.0000
  C   C16       1.0  0.91081  0.49008  0.04849  1.0000
  C   C17       1.0  0.51333  0.41314  0.02422  1.0000
  C   C18       1.0  0.57979  0.08703  0.95883  1.0000
  C   C19       1.0  0.50864  0.09925  0.51453  1.0000
  C   C20       1.0  0.57979  0.48913  0.44808  1.0000
  C   C21       1.0  0.90870  0.42093  0.54623  1.0000
  C   C22       1.0  0.49048  0.91028  0.52480  1.0000
  C   C23       1.0  0.42251  0.52124  0.54277  1.0000
  C   C24       1.0  0.08653  0.58227  0.44161  1.0000
  C   C25       1.0  0.34004  0.59137  0.04579  1.0000
  C   C26       1.0  0.25634  0.65856  0.04481  1.0000
  C   C27       1.0  0.66745  0.40765  0.09518  1.0000
  C   C28       1.0  0.59719  0.25372  0.05541  1.0000
  C   C29       1.0  0.65357  0.25298  0.42847  1.0000
  C   C30       1.0  0.40221  0.66445  0.44109  1.0000
  C   C31       1.0  0.36491  0.56501  0.04549  1.0000
  C   C32       1.0  0.20395  0.63210  0.03111  1.0000
  C   C33       1.0  0.64130  0.43284  0.09128  1.0000
  C   C34       1.0  0.56932  0.20180  0.04173  1.0000
  C   C35       1.0  0.62671  0.20135  0.42249  1.0000
  C   C36       1.0  0.42937  0.64029  0.44542  1.0000
  C   C37       1.0  0.99901  0.54145  0.99060  1.0000
  C   C38       1.0  0.45767  0.45271  0.03502  1.0000
  C   C39       1.0  0.54608  0.99513  0.99496  1.0000
  C   C40       1.0  0.00126  0.45035  0.00265  1.0000
  C   C41       1.0  0.54051  0.53736  0.95473  1.0000
  C   C42       1.0  0.46031  0.00003  0.05395  1.0000
  C   C43       1.0  0.27753  0.63585  0.96328  1.0000
  C   C44       1.0  0.35832  0.63705  0.99379  1.0000
  C   C45       1.0  0.64169  0.35631  0.00539  1.0000
  C   C46       1.0  0.64120  0.27721  0.00066  1.0000
  C   C47       1.0  0.41068  0.58468  0.99929  1.0000
  C   C48       1.0  0.17079  0.58138  0.93351  1.0000
  C   C49       1.0  0.58853  0.40723  0.99397  1.0000
  C   C50       1.0  0.58571  0.17123  0.97673  1.0000
  C   C51       1.0  0.03956  0.49981  0.47822  1.0000
  C   C52       1.0  0.49837  0.54663  0.46877  1.0000
  C   C53       1.0  0.45915  0.96405  0.54876  1.0000
  C   C54       1.0  0.95840  0.50493  0.52597  1.0000
  C   C55       1.0  0.50271  0.46352  0.51583  1.0000
  C   C56       1.0  0.54086  0.04629  0.49704  1.0000
  C   C57       1.0  0.50202  0.04044  0.02197  1.0000
  C   C58       1.0  0.54089  0.49390  0.97463  1.0000
  C   C59       1.0  0.96005  0.45412  0.02374  1.0000
  C   C60       1.0  0.50439  0.95462  0.02732  1.0000
  C   C61       1.0  0.45778  0.49653  0.01739  1.0000
  C   C62       1.0  0.03987  0.53746  0.96766  1.0000
  C   C63       1.0  0.08914  0.50915  0.45478  1.0000
  C   C64       1.0  0.48458  0.58530  0.44897  1.0000
  C   C65       1.0  0.42126  0.91431  0.57455  1.0000
  C   C66       1.0  0.91041  0.49689  0.55834  1.0000
  C   C67       1.0  0.51545  0.42398  0.53322  1.0000
  C   C68       1.0  0.57906  0.09613  0.47373  1.0000
  C   C69       1.0  0.51088  0.09095  0.00998  1.0000
  C   C70       1.0  0.58013  0.48145  0.95864  1.0000
  C   C71       1.0  0.91083  0.41524  0.04973  1.0000
  C   C72       1.0  0.49435  0.90326  0.03487  1.0000
  C   C73       1.0  0.41950  0.50980  0.03825  1.0000
  C   C74       1.0  0.08773  0.57582  0.93409  1.0000
  C   C75       1.0  0.33965  0.59923  0.54164  1.0000
  C   C76       1.0  0.59673  0.26272  0.56102  1.0000
  C   C77       1.0  0.58879  0.33163  0.90597  1.0000
  C   C78       1.0  0.65646  0.24614  0.93098  1.0000
  C   C79       1.0  0.40345  0.65586  0.94497  1.0000
  C   C80       1.0  0.24340  0.58576  0.85865  1.0000
  C   C81       1.0  0.36552  0.57383  0.54143  1.0000
  C   C82       1.0  0.56917  0.21117  0.55416  1.0000
  C   C83       1.0  0.56246  0.35673  0.89909  1.0000
  C   C84       1.0  0.62975  0.19421  0.92108  1.0000
  C   C85       1.0  0.42987  0.63097  0.95076  1.0000
  C   C86       1.0  0.19068  0.55853  0.84540  1.0000
  C   C87       1.0  0.99828  0.54833  0.49944  1.0000
  C   C88       1.0  0.46113  0.46486  0.54546  1.0000
  C   C89       1.0  0.54343  0.00316  0.49626  1.0000
  C   C90       1.0  0.99916  0.45610  0.50216  1.0000
  C   C91       1.0  0.54035  0.54566  0.44065  1.0000
  C   C92       1.0  0.45660  0.00717  0.54895  1.0000
  C   C93       1.0  0.35692  0.64484  0.48958  1.0000
  C   C94       1.0  0.63967  0.28490  0.50071  1.0000
  C   C95       1.0  0.41118  0.59411  0.49451  1.0000
  C   C96       1.0  0.58431  0.17974  0.48631  1.0000
  N   N1        1.0  0.11802  0.55377  0.93219  1.0000
  N   N2        1.0  0.43684  0.55820  0.99993  1.0000
  N   N3        1.0  0.44560  0.87642  0.06554  1.0000
  N   N4        1.0  0.88225  0.43886  0.06228  1.0000
  N   N5        1.0  0.56162  0.43276  0.99182  1.0000
  N   N6        1.0  0.55961  0.11872  0.97757  1.0000
  N   N7        1.0  0.33219  0.66339  0.99055  1.0000
  N   N8        1.0  0.66863  0.33043  0.01498  1.0000
  N   N9        1.0  0.11662  0.56000  0.43828  1.0000
  N   N10       1.0  0.43799  0.56819  0.49503  1.0000
  N   N11       1.0  0.44184  0.88322  0.55552  1.0000
  N   N12       1.0  0.88070  0.44480  0.56245  1.0000
  N   N13       1.0  0.56183  0.44148  0.48974  1.0000
  N   N14       1.0  0.55823  0.12739  0.48795  1.0000
  N   N15       1.0  0.32991  0.67043  0.48662  1.0000
  N   N16       1.0  0.66753  0.33797  0.51250  1.0000
  O   O1        1.0  0.10734  0.47507  0.95806  1.0000
  O   O2        1.0  0.50841  0.61449  0.91260  1.0000
  O   O3        1.0  0.38537  0.89560  0.11917  1.0000
  O   O4        1.0  0.89785  0.52073  0.06070  1.0000
  O   O5        1.0  0.48835  0.37228  0.05752  1.0000
  O   O6        1.0  0.61883  0.09788  0.91959  1.0000
  O   O7        1.0  0.48000  0.11420  0.52792  1.0000
  O   O8        1.0  0.61859  0.51268  0.40489  1.0000
  O   O9        1.0  0.89392  0.37684  0.54684  1.0000
  O   O10       1.0  0.51723  0.89361  0.50323  1.0000
  O   O11       1.0  0.38598  0.49696  0.59615  1.0000
  O   O12       1.0  0.09810  0.62399  0.41849  1.0000
  O   O13       1.0  0.10405  0.47987  0.45179  1.0000
  O   O14       1.0  0.50812  0.62357  0.39974  1.0000
  O   O15       1.0  0.38124  0.90190  0.60871  1.0000
  O   O16       1.0  0.89870  0.52821  0.58043  1.0000
  O   O17       1.0  0.49205  0.38483  0.57812  1.0000
  O   O18       1.0  0.62002  0.10799  0.44701  1.0000
  O   O19       1.0  0.48208  0.10566  0.02409  1.0000
  O   O20       1.0  0.61969  0.50667  0.92096  1.0000
  O   O21       1.0  0.89676  0.37172  0.05658  1.0000
  O   O22       1.0  0.52121  0.88650  0.01612  1.0000
  O   O23       1.0  0.38145  0.48465  0.08369  1.0000
  O   O24       1.0  0.09925  0.61744  0.90981  1.0000
  C   C97       1.0  0.33721  0.75249  0.92714  1.0000
  C   C98       1.0  0.35425  0.72242  0.99473  1.0000
  C  Sn1       1.0  0.30923  0.67086  0.10496  1.0000
  C  Sn2       1.0  0.34375  0.72450  0.14813  1.0000
  C   C99       1.0  0.32631  0.75424  0.07993  1.0000
  C   C100      1.0  0.37122  0.80540  0.96971  1.0000
  H   H37       1.0  0.29762  0.73473  0.84193  1.0000
  O  Te1       1.0  0.32563  0.64026  0.17129  1.0000
  O  Te2       1.0  0.39496  0.74802  0.25805  1.0000
  H   H38       1.0  0.35802  0.82868  0.91749  1.0000
  Mg  Mg1       1.0  0.39907  0.69008  0.31570  1.0000
  C   C101      1.0  0.78274  0.42395  0.95412  1.0000
  C   C102      1.0  0.72721  0.34627  0.05108  1.0000
  C  Sn3       1.0  0.71667  0.30829  0.14047  1.0000
  C  Sn4       1.0  0.66453  0.27329  0.13236  1.0000
  C   C103      1.0  0.62425  0.27716  0.03490  1.0000
  C   C104      1.0  0.73131  0.38943  0.94599  1.0000
  H   H39       1.0  0.79124  0.45346  0.88524  1.0000
  O  Te3       1.0  0.75763  0.30527  0.23678  1.0000
  O  Te4       1.0  0.65289  0.23495  0.22040  1.0000
  H   H40       1.0  0.69991  0.39217  0.87084  1.0000
  Mg  Mg2       1.0  0.72207  0.24640  0.33434  1.0000
  C   C105      1.0  0.57689  0.34042  0.38085  1.0000
  C   C106      1.0  0.62868  0.35810  0.47097  1.0000
  C  Sn5       1.0  0.66122  0.40674  0.58363  1.0000
  C  Sn6       1.0  0.64144  0.43817  0.60627  1.0000
  C   C107      1.0  0.58957  0.42011  0.51561  1.0000
  C   C108      1.0  0.55734  0.37139  0.40315  1.0000
  H   H41       1.0  0.55194  0.30271  0.29391  1.0000
  O  Te5       1.0  0.71287  0.42381  0.67261  1.0000
  O  Te6       1.0  0.67312  0.48693  0.71812  1.0000
  H   H42       1.0  0.51724  0.35770  0.33349  1.0000
  Mg  Mg3       1.0  0.74078  0.49313  0.81048  1.0000
  C   C109      1.0  0.21519  0.65066  0.55113  1.0000
  C   C110      1.0  0.17529  0.60135  0.45434  1.0000
  C  Sn7       1.0  0.18635  0.57065  0.35938  1.0000
  C  Sn8       1.0  0.23837  0.58978  0.36165  1.0000
  C   C111      1.0  0.27802  0.63915  0.45900  1.0000
  C   C112      1.0  0.26651  0.66955  0.55350  1.0000
  H   H43       1.0  0.20630  0.67418  0.62433  1.0000
  O  Te7       1.0  0.14602  0.52148  0.26331  1.0000
  O  Te8       1.0  0.25052  0.55990  0.26798  1.0000
  H   H44       1.0  0.29742  0.70772  0.62852  1.0000
  Mg  Mg4       1.0  0.18211  0.49537  0.15681  1.0000
  C   C113      1.0  0.43701  0.79720  0.65396  1.0000
  C   C114      1.0  0.42196  0.82612  0.56716  1.0000
  C  Sn9       1.0  0.37108  0.80337  0.45527  1.0000
  C  Sn10      1.0  0.33469  0.75069  0.43012  1.0000
  C   C115      1.0  0.35012  0.72211  0.51766  1.0000
  C   C116      1.0  0.40114  0.74525  0.62928  1.0000
  H   H45       1.0  0.47647  0.81511  0.74040  1.0000
  O  Te9       1.0  0.35669  0.83281  0.36952  1.0000
  O  Te10      1.0  0.28359  0.72700  0.31908  1.0000
  H   H46       1.0  0.41277  0.72286  0.69655  1.0000
  Mg  Mg5       1.0  0.28259  0.78320  0.23143  1.0000
  C   C117      1.0  0.79627  0.36649  0.64164  1.0000
  C   C118      1.0  0.82352  0.40657  0.56982  1.0000
  C  Sn11      1.0  0.79900  0.42863  0.48318  1.0000
  C  Sn12      1.0  0.74621  0.41015  0.46841  1.0000
  C   C119      1.0  0.71930  0.37006  0.54081  1.0000
  C   C120      1.0  0.74421  0.34826  0.62719  1.0000
  H   H47       1.0  0.81555  0.34964  0.70856  1.0000
  O  Te11      1.0  0.82679  0.46862  0.41213  1.0000
  O  Te12      1.0  0.72076  0.43151  0.38255  1.0000
  H   H48       1.0  0.72311  0.31725  0.68288  1.0000
  Mg  Mg6       1.0  0.77512  0.48524  0.30732  1.0000
