data_image0
_chemical_formula_structural       H24C84N12O24SnCSn2CSnTe4Mg2SnCSn2CSnTe4Mg2SnCSn2CSnTe4Mg2SnCSn2CSnTe4Mg2SnCSn2CSnTe4Mg2SnCSn2CSnTe4Mg2SnCSn2CSnTe4Mg2SnCSn2CSnTe4Mg2SnCSn2CSnTe4Mg2SnCSn2CSnTe4Mg2SnCSn2CSnTe4Mg2SnCSn2CSnTe4Mg2
_chemical_formula_sum              "H24 C108 N12 O24 Sn48 Te48 Mg24"
_cell_length_a       36.5607
_cell_length_b       36.3575
_cell_length_c       7.87938
_cell_angle_alpha    90.5396
_cell_angle_beta     90.2041
_cell_angle_gamma    120.313

_symmetry_space_group_name_H-M    'P1'
_space_group_IT_number       1

loop_
  _space_group_symop_operation_xyz
  'x, y, z'

loop_
  _atom_site_type_symbol
  _atom_site_label
  _atom_site_symmetry_multiplicity
  _atom_site_fract_x
  _atom_site_fract_y
  _atom_site_fract_z
  _atom_site_occupancy
  H   H1        1.0  0.29405  0.70508  0.23580  1.0000
  H   H2        1.0  0.29216  0.58600  0.24609  1.0000
  H   H3        1.0  0.41085  0.70386  0.24491  1.0000
  H   H4        1.0  0.70579  0.29576  0.25860  1.0000
  H   H5        1.0  0.70574  0.41374  0.24980  1.0000
  H   H6        1.0  0.58788  0.29492  0.25857  1.0000
  H   H7        1.0  0.55951  0.56083  0.10720  1.0000
  H   H8        1.0  0.44104  0.99895  0.09420  1.0000
  H   H9        1.0  0.99706  0.43842  0.08238  1.0000
  H   H10       1.0  0.43782  0.43741  0.41131  1.0000
  H   H11       1.0  0.00106  0.56265  0.39877  1.0000
  H   H12       1.0  0.56207  0.00065  0.41980  1.0000
  H   H13       1.0  0.29364  0.70500  0.73690  1.0000
  H   H14       1.0  0.29190  0.58597  0.74103  1.0000
  H   H15       1.0  0.41055  0.70417  0.74366  1.0000
  H   H16       1.0  0.70504  0.29487  0.76235  1.0000
  H   H17       1.0  0.70571  0.41336  0.75543  1.0000
  H   H18       1.0  0.58760  0.29480  0.75448  1.0000
  H   H19       1.0  0.56097  0.56257  0.59510  1.0000
  H   H20       1.0  0.44101  0.99855  0.58982  1.0000
  H   H21       1.0  0.99692  0.43846  0.57325  1.0000
  H   H22       1.0  0.44137  0.44092  0.91412  1.0000
  H   H23       1.0  0.00106  0.56081  0.90603  1.0000
  H   H24       1.0  0.56172  0.00027  0.91756  1.0000
  C   C1        1.0  0.42942  0.51139  0.33163  1.0000
  C   C2        1.0  0.48871  0.91779  0.32980  1.0000
  C   C3        1.0  0.08216  0.56982  0.30896  1.0000
  C   C4        1.0  0.48483  0.56755  0.18499  1.0000
  C   C5        1.0  0.08029  0.51279  0.16015  1.0000
  C   C6        1.0  0.43314  0.91712  0.17775  1.0000
  C   C7        1.0  0.56826  0.48753  0.18836  1.0000
  C   C8        1.0  0.51492  0.08196  0.18019  1.0000
  C   C9        1.0  0.91607  0.43118  0.17331  1.0000
  C   C10       1.0  0.51259  0.43057  0.33063  1.0000
  C   C11       1.0  0.91795  0.48833  0.32159  1.0000
  C   C12       1.0  0.57026  0.08286  0.33519  1.0000
  C   C13       1.0  0.46313  0.50050  0.30159  1.0000
  C   C14       1.0  0.49988  0.96270  0.29995  1.0000
  C   C15       1.0  0.03694  0.53623  0.28121  1.0000
  C   C16       1.0  0.49665  0.53454  0.21750  1.0000
  C   C17       1.0  0.03583  0.50188  0.19422  1.0000
  C   C18       1.0  0.46642  0.96228  0.21110  1.0000
  C   C19       1.0  0.53437  0.49801  0.21861  1.0000
  C   C20       1.0  0.50352  0.03713  0.21267  1.0000
  C   C21       1.0  0.96128  0.46489  0.19992  1.0000
  C   C22       1.0  0.50082  0.46382  0.30192  1.0000
  C   C23       1.0  0.96240  0.49925  0.28680  1.0000
  C   C24       1.0  0.53692  0.03761  0.30245  1.0000
  C   C25       1.0  0.31079  0.68745  0.23830  1.0000
  C   C26       1.0  0.30970  0.62062  0.24381  1.0000
  C   C27       1.0  0.37640  0.68683  0.24359  1.0000
  C   C28       1.0  0.68848  0.31283  0.25712  1.0000
  C   C29       1.0  0.68847  0.37912  0.25258  1.0000
  C   C30       1.0  0.62232  0.31237  0.25694  1.0000
  C   C31       1.0  0.28747  0.64275  0.23964  1.0000
  C   C32       1.0  0.35413  0.64214  0.24541  1.0000
  C   C33       1.0  0.35526  0.71001  0.24074  1.0000
  C   C34       1.0  0.71115  0.35749  0.25505  1.0000
  C   C35       1.0  0.64405  0.35707  0.25453  1.0000
  C   C36       1.0  0.64405  0.28972  0.25712  1.0000
  C   C37       1.0  0.53346  0.53447  0.17276  1.0000
  C   C38       1.0  0.46707  0.99945  0.16381  1.0000
  C   C39       1.0  0.99795  0.46507  0.15026  1.0000
  C   C40       1.0  0.46398  0.46391  0.34673  1.0000
  C   C41       1.0  0.00026  0.53608  0.33063  1.0000
  C   C42       1.0  0.53623  0.00038  0.34960  1.0000
  C   C43       1.0  0.43154  0.51342  0.82538  1.0000
  C   C44       1.0  0.48785  0.91713  0.82843  1.0000
  C   C45       1.0  0.08201  0.56840  0.81205  1.0000
  C   C46       1.0  0.48658  0.56946  0.67684  1.0000
  C   C47       1.0  0.08019  0.51254  0.65438  1.0000
  C   C48       1.0  0.43293  0.91685  0.67313  1.0000
  C   C49       1.0  0.57008  0.48881  0.67909  1.0000
  C   C50       1.0  0.51452  0.08162  0.67871  1.0000
  C   C51       1.0  0.91609  0.43059  0.66952  1.0000
  C   C52       1.0  0.51496  0.43341  0.83068  1.0000
  C   C53       1.0  0.91797  0.48687  0.82537  1.0000
  C   C54       1.0  0.56994  0.08254  0.83251  1.0000
  C   C55       1.0  0.46555  0.50300  0.79678  1.0000
  C   C56       1.0  0.49953  0.96222  0.79768  1.0000
  C   C57       1.0  0.03682  0.53504  0.78237  1.0000
  C   C58       1.0  0.49869  0.53665  0.70957  1.0000
  C   C59       1.0  0.03573  0.50131  0.69043  1.0000
  C   C60       1.0  0.46625  0.96191  0.70766  1.0000
  C   C61       1.0  0.53667  0.50018  0.71062  1.0000
  C   C62       1.0  0.50323  0.03674  0.71000  1.0000
  C   C63       1.0  0.96124  0.46413  0.69764  1.0000
  C   C64       1.0  0.50351  0.46668  0.79858  1.0000
  C   C65       1.0  0.96235  0.49800  0.78875  1.0000
  C   C66       1.0  0.53660  0.03721  0.80007  1.0000
  C   C67       1.0  0.31043  0.68739  0.73820  1.0000
  C   C68       1.0  0.30958  0.62061  0.74071  1.0000
  C   C69       1.0  0.37611  0.68685  0.74252  1.0000
  C   C70       1.0  0.68808  0.31227  0.75987  1.0000
  C   C71       1.0  0.68848  0.37872  0.75645  1.0000
  C   C72       1.0  0.62206  0.31212  0.75619  1.0000
  C   C73       1.0  0.28728  0.64268  0.73736  1.0000
  C   C74       1.0  0.35403  0.64217  0.74364  1.0000
  C   C75       1.0  0.35487  0.70990  0.74088  1.0000
  C   C76       1.0  0.71104  0.35694  0.75798  1.0000
  C   C77       1.0  0.64404  0.35683  0.75567  1.0000
  C   C78       1.0  0.64367  0.28936  0.75894  1.0000
  C   C79       1.0  0.53535  0.53639  0.66321  1.0000
  C   C80       1.0  0.46691  0.99906  0.66043  1.0000
  C   C81       1.0  0.99787  0.46470  0.64467  1.0000
  C   C82       1.0  0.46692  0.46696  0.84522  1.0000
  C   C83       1.0  0.00019  0.53458  0.83472  1.0000
  C   C84       1.0  0.53588  0.99995  0.84726  1.0000
  N   N1        1.0  0.44842  0.89207  0.25243  1.0000
  N   N2        1.0  0.10640  0.55366  0.23383  1.0000
  N   N3        1.0  0.44438  0.55187  0.25815  1.0000
  N   N4        1.0  0.55518  0.10775  0.25758  1.0000
  N   N5        1.0  0.89190  0.44738  0.24870  1.0000
  N   N6        1.0  0.55327  0.44677  0.25881  1.0000
  N   N7        1.0  0.44774  0.89170  0.74957  1.0000
  N   N8        1.0  0.10628  0.55296  0.73144  1.0000
  N   N9        1.0  0.44606  0.55359  0.75014  1.0000
  N   N10       1.0  0.55437  0.10738  0.75844  1.0000
  N   N11       1.0  0.89186  0.44633  0.74866  1.0000
  N   N12       1.0  0.55501  0.44845  0.75466  1.0000
  O   O1        1.0  0.49474  0.09455  0.10046  1.0000
  O   O2        1.0  0.90198  0.39681  0.10043  1.0000
  O   O3        1.0  0.60177  0.50880  0.11493  1.0000
  O   O4        1.0  0.90573  0.50913  0.40035  1.0000
  O   O5        1.0  0.60335  0.09632  0.41530  1.0000
  O   O6        1.0  0.49247  0.39660  0.40292  1.0000
  O   O7        1.0  0.50912  0.90524  0.40805  1.0000
  O   O8        1.0  0.09621  0.60394  0.38370  1.0000
  O   O9        1.0  0.39615  0.49072  0.40732  1.0000
  O   O10       1.0  0.09260  0.49197  0.08215  1.0000
  O   O11       1.0  0.39980  0.90369  0.09975  1.0000
  O   O12       1.0  0.50475  0.60085  0.10807  1.0000
  O   O13       1.0  0.49455  0.09435  0.59844  1.0000
  O   O14       1.0  0.90210  0.39678  0.59220  1.0000
  O   O15       1.0  0.60319  0.50894  0.60172  1.0000
  O   O16       1.0  0.90580  0.50731  0.90725  1.0000
  O   O17       1.0  0.60354  0.09625  0.90887  1.0000
  O   O18       1.0  0.49485  0.40029  0.90871  1.0000
  O   O19       1.0  0.50750  0.90394  0.90806  1.0000
  O   O20       1.0  0.09600  0.60187  0.89166  1.0000
  O   O21       1.0  0.39824  0.49263  0.90068  1.0000
  O   O22       1.0  0.09241  0.49213  0.57294  1.0000
  O   O23       1.0  0.39998  0.90368  0.59240  1.0000
  O   O24       1.0  0.50651  0.60283  0.60029  1.0000
  C  Sn1       1.0  0.20767  0.56654  0.27253  1.0000
  C   C85       1.0  0.23556  0.60681  0.20790  1.0000
  C  Sn2       1.0  0.22098  0.63435  0.16385  1.0000
  C  Sn3       1.0  0.17762  0.62139  0.18494  1.0000
  C   C86       1.0  0.14976  0.58115  0.24957  1.0000
  C  Sn4       1.0  0.16431  0.55358  0.29363  1.0000
  O  Te1       1.0  0.22294  0.53954  0.31574  1.0000
  O  Te2       1.0  0.24945  0.67444  0.09942  1.0000
  O  Te3       1.0  0.16236  0.64844  0.14167  1.0000
  O  Te4       1.0  0.13586  0.51352  0.35805  1.0000
  Mg  Mg1       1.0  0.21346  0.69988  0.05897  1.0000
  Mg  Mg2       1.0  0.17182  0.48806  0.39863  1.0000
  C  Sn5       1.0  0.35669  0.56527  0.21050  1.0000
  C   C87       1.0  0.36915  0.60563  0.27811  1.0000
  C  Sn6       1.0  0.41129  0.63317  0.32618  1.0000
  C  Sn7       1.0  0.44162  0.62011  0.30616  1.0000
  C   C88       1.0  0.42917  0.57978  0.23855  1.0000
  C  Sn8       1.0  0.38703  0.55222  0.19048  1.0000
  O  Te5       1.0  0.31439  0.53827  0.16330  1.0000
  O  Te6       1.0  0.42298  0.67335  0.39353  1.0000
  O  Te7       1.0  0.48395  0.64716  0.35343  1.0000
  O  Te8       1.0  0.37533  0.51206  0.12314  1.0000
  Mg  Mg3       1.0  0.48441  0.69875  0.43903  1.0000
  Mg  Mg4       1.0  0.31392  0.48665  0.07752  1.0000
  C  Sn9       1.0  0.38340  0.81538  0.37100  1.0000
  C   C89       1.0  0.42299  0.84260  0.30049  1.0000
  C  Sn10      1.0  0.44031  0.82712  0.18144  1.0000
  C  Sn11      1.0  0.41757  0.78354  0.13175  1.0000
  C   C90       1.0  0.37801  0.75635  0.20222  1.0000
  C  Sn12      1.0  0.36067  0.77179  0.32131  1.0000
  O  Te9       1.0  0.36670  0.83154  0.48979  1.0000
  O  Te10      1.0  0.47994  0.85494  0.11276  1.0000
  O  Te11      1.0  0.43432  0.76739  0.01286  1.0000
  O  Te12      1.0  0.32106  0.74400  0.38995  1.0000
  Mg  Mg5       1.0  0.49179  0.82109  0.95534  1.0000
  Mg  Mg6       1.0  0.31157  0.78108  0.54731  1.0000
  C  Sn13      1.0  0.79060  0.37369  0.38597  1.0000
  C   C91       1.0  0.76322  0.38465  0.30678  1.0000
  C  Sn14      1.0  0.77801  0.41518  0.17939  1.0000
  C  Sn15      1.0  0.82106  0.43516  0.13002  1.0000
  C   C92       1.0  0.84841  0.42420  0.20916  1.0000
  C  Sn16      1.0  0.83365  0.39367  0.33660  1.0000
  O  Te13      1.0  0.77513  0.34308  0.51302  1.0000
  O  Te14      1.0  0.75004  0.42562  0.10212  1.0000
  O  Te15      1.0  0.83651  0.46579  0.00286  1.0000
  O  Te16      1.0  0.86159  0.38322  0.41382  1.0000
  Mg  Mg7       1.0  0.78853  0.47248  0.93537  1.0000
  Mg  Mg8       1.0  0.82554  0.33962  0.58051  1.0000
  C  Sn17      1.0  0.57856  0.37032  0.12982  1.0000
  C   C93       1.0  0.61807  0.38280  0.20300  1.0000
  C  Sn18      1.0  0.63593  0.41602  0.32259  1.0000
  C  Sn19      1.0  0.61382  0.43720  0.37010  1.0000
  C   C94       1.0  0.57433  0.42472  0.29696  1.0000
  C  Sn20      1.0  0.55645  0.39150  0.17733  1.0000
  O  Te17      1.0  0.56130  0.33702  0.01053  1.0000
  O  Te18      1.0  0.67548  0.42794  0.39396  1.0000
  O  Te19      1.0  0.63111  0.47052  0.48949  1.0000
  O  Te20      1.0  0.51692  0.37958  0.10600  1.0000
  Mg  Mg9       1.0  0.68582  0.47512  0.55101  1.0000
  Mg  Mg10      1.0  0.50895  0.33565  0.94901  1.0000
  C  Sn21      1.0  0.62985  0.18525  0.21938  1.0000
  C   C95       1.0  0.59008  0.15744  0.28713  1.0000
  C  Sn22      1.0  0.56255  0.17208  0.33016  1.0000
  C  Sn23      1.0  0.57501  0.21541  0.30485  1.0000
  C   C96       1.0  0.61475  0.24320  0.23711  1.0000
  C  Sn24      1.0  0.64231  0.22859  0.19407  1.0000
  O  Te21      1.0  0.65686  0.16993  0.17726  1.0000
  O  Te22      1.0  0.52296  0.14368  0.39775  1.0000
  O  Te23      1.0  0.54796  0.23073  0.34704  1.0000
  O  Te24      1.0  0.68188  0.25696  0.12649  1.0000
  Mg  Mg11      1.0  0.49730  0.17972  0.43516  1.0000
  Mg  Mg12      1.0  0.70755  0.22095  0.08895  1.0000
  C  Sn25      1.0  0.18231  0.56553  0.86020  1.0000
  C   C97       1.0  0.15528  0.57696  0.78095  1.0000
  C  Sn26      1.0  0.17083  0.60884  0.65891  1.0000
  C  Sn27      1.0  0.21429  0.62972  0.61506  1.0000
  C   C98       1.0  0.24129  0.61829  0.69426  1.0000
  C  Sn28      1.0  0.22577  0.58642  0.81635  1.0000
  O  Te25      1.0  0.16607  0.53357  0.98185  1.0000
  O  Te26      1.0  0.14321  0.61972  0.58146  1.0000
  O  Te27      1.0  0.23051  0.66171  0.49330  1.0000
  O  Te28      1.0  0.25336  0.57553  0.89375  1.0000
  Mg  Mg13      1.0  0.18034  0.66525  0.42326  1.0000
  Mg  Mg14      1.0  0.21385  0.52673  0.05190  1.0000
  C  Sn29      1.0  0.43043  0.64045  0.78158  1.0000
  C   C99       1.0  0.38964  0.62628  0.71823  1.0000
  C  Sn30      1.0  0.36249  0.58316  0.68012  1.0000
  C  Sn31      1.0  0.37640  0.55358  0.70596  1.0000
  C   C100      1.0  0.41717  0.56776  0.76930  1.0000
  C  Sn32      1.0  0.44434  0.61088  0.80743  1.0000
  O  Te29      1.0  0.45703  0.68371  0.81882  1.0000
  O  Te30      1.0  0.32186  0.56975  0.61686  1.0000
  O  Te31      1.0  0.34976  0.51030  0.66866  1.0000
  O  Te32      1.0  0.48494  0.62429  0.87067  1.0000
  Mg  Mg15      1.0  0.29729  0.50755  0.58527  1.0000
  Mg  Mg16      1.0  0.50953  0.68647  0.90239  1.0000
  C  Sn33      1.0  0.43169  0.78884  0.70115  1.0000
  C   C101      1.0  0.39205  0.76169  0.77139  1.0000
  C  Sn34      1.0  0.36592  0.77744  0.82203  1.0000
  C  Sn35      1.0  0.37968  0.82125  0.80196  1.0000
  C   C102      1.0  0.41929  0.84838  0.73174  1.0000
  C  Sn36      1.0  0.44545  0.83265  0.68109  1.0000
  O  Te33      1.0  0.45730  0.77240  0.65141  1.0000
  O  Te34      1.0  0.32643  0.74968  0.89197  1.0000
  O  Te35      1.0  0.35403  0.83768  0.85179  1.0000
  O  Te36      1.0  0.48492  0.86039  0.61116  1.0000
  Mg  Mg17      1.0  0.30294  0.78720  0.94037  1.0000
  Mg  Mg18      1.0  0.50842  0.82290  0.56264  1.0000
  C  Sn37      1.0  0.81498  0.37117  0.78486  1.0000
  C   C103      1.0  0.84249  0.41156  0.72035  1.0000
  C  Sn38      1.0  0.82783  0.43944  0.68371  1.0000
  C  Sn39      1.0  0.78477  0.42670  0.71224  1.0000
  C   C104      1.0  0.75729  0.38634  0.77674  1.0000
  C  Sn40      1.0  0.77192  0.35844  0.81339  1.0000
  O  Te37      1.0  0.83033  0.34382  0.82059  1.0000
  O  Te38      1.0  0.85593  0.47965  0.61925  1.0000
  O  Te39      1.0  0.76944  0.45409  0.67644  1.0000
  O  Te40      1.0  0.74385  0.31825  0.87784  1.0000
  Mg  Mg19      1.0  0.81998  0.50558  0.59053  1.0000
  Mg  Mg20      1.0  0.77977  0.29231  0.90668  1.0000
  C  Sn41      1.0  0.58072  0.37242  0.62273  1.0000
  C   C105      1.0  0.61903  0.38346  0.70388  1.0000
  C  Sn42      1.0  0.63550  0.41514  0.83002  1.0000
  C  Sn43      1.0  0.61319  0.43622  0.87610  1.0000
  C   C106      1.0  0.57491  0.42518  0.79499  1.0000
  C  Sn44      1.0  0.55842  0.39350  0.66881  1.0000
  O  Te41      1.0  0.56486  0.34065  0.49699  1.0000
  O  Te42      1.0  0.67386  0.42563  0.90931  1.0000
  O  Te43      1.0  0.62669  0.46475  0.00195  1.0000
  O  Te44      1.0  0.52008  0.38300  0.58957  1.0000
  Mg  Mg21      1.0  0.68012  0.46776  0.07315  1.0000
  Mg  Mg22      1.0  0.51137  0.33760  0.42578  1.0000
  C  Sn45      1.0  0.62898  0.18473  0.71773  1.0000
  C   C107      1.0  0.58961  0.15707  0.78894  1.0000
  C  Sn46      1.0  0.56256  0.17193  0.83693  1.0000
  C  Sn47      1.0  0.57511  0.21534  0.81314  1.0000
  C   C108      1.0  0.61445  0.24297  0.74194  1.0000
  C  Sn48      1.0  0.64152  0.22814  0.69394  1.0000
  O  Te45      1.0  0.65551  0.16918  0.67068  1.0000
  O  Te46      1.0  0.52336  0.14368  0.90792  1.0000
  O  Te47      1.0  0.54853  0.23088  0.86026  1.0000
  O  Te48      1.0  0.68069  0.25636  0.62297  1.0000
  Mg  Mg23      1.0  0.49829  0.18002  0.95163  1.0000
  Mg  Mg24      1.0  0.70578  0.22006  0.57913  1.0000
