data_image0
_chemical_formula_structural       H48C120N12O24SnCSn2CSnTe4Mg2SnCSn2CSnTe4Mg2SnCSn2CSnTe4Mg2SnCSn2CSnTe4Mg2SnCSn2CSnTe4Mg2SnCSn2CSnTe4Mg2
_chemical_formula_sum              "H48 C132 N12 O24 Sn24 Te24 Mg12"
_cell_length_a       36.5607
_cell_length_b       36.3575
_cell_length_c       7.87938
_cell_angle_alpha    90.5396
_cell_angle_beta     90.2041
_cell_angle_gamma    120.313

_symmetry_space_group_name_H-M    'P1'
_space_group_IT_number       1

loop_
  _space_group_symop_operation_xyz
  'x, y, z'

loop_
  _atom_site_type_symbol
  _atom_site_label
  _atom_site_symmetry_multiplicity
  _atom_site_fract_x
  _atom_site_fract_y
  _atom_site_fract_z
  _atom_site_occupancy
  H   H1        1.0  0.33004  0.56409  0.10471  1.0000
  H   H2        1.0  0.43025  0.66671  0.39468  1.0000
  H   H3        1.0  0.76404  0.33567  0.40972  1.0000
  H   H4        1.0  0.56687  0.23588  0.39501  1.0000
  H   H5        1.0  0.66866  0.23699  0.11654  1.0000
  H   H6        1.0  0.76383  0.43279  0.10135  1.0000
  H   H7        1.0  0.36941  0.52506  0.11090  1.0000
  H   H8        1.0  0.46965  0.62774  0.39886  1.0000
  H   H9        1.0  0.84252  0.37431  0.40307  1.0000
  H   H10       1.0  0.52864  0.15690  0.39494  1.0000
  H   H11       1.0  0.63030  0.15798  0.11895  1.0000
  H   H12       1.0  0.84256  0.47192  0.09975  1.0000
  H   H13       1.0  0.29405  0.70508  0.23580  1.0000
  H   H14       1.0  0.29216  0.58600  0.24609  1.0000
  H   H15       1.0  0.41085  0.70386  0.24491  1.0000
  H   H16       1.0  0.70579  0.29576  0.25860  1.0000
  H   H17       1.0  0.70574  0.41374  0.24980  1.0000
  H   H18       1.0  0.58788  0.29492  0.25857  1.0000
  H   H19       1.0  0.55951  0.56083  0.10720  1.0000
  H   H20       1.0  0.44104  0.99895  0.09420  1.0000
  H   H21       1.0  0.99706  0.43842  0.08238  1.0000
  H   H22       1.0  0.43782  0.43741  0.41131  1.0000
  H   H23       1.0  0.00106  0.56265  0.39877  1.0000
  H   H24       1.0  0.56207  0.00065  0.41980  1.0000
  H   H25       1.0  0.23498  0.66648  0.58838  1.0000
  H   H26       1.0  0.23367  0.56601  0.87840  1.0000
  H   H27       1.0  0.76387  0.33149  0.88746  1.0000
  H   H28       1.0  0.66777  0.43331  0.90680  1.0000
  H   H29       1.0  0.56832  0.33383  0.60252  1.0000
  H   H30       1.0  0.76418  0.43523  0.62593  1.0000
  H   H31       1.0  0.15639  0.62738  0.58665  1.0000
  H   H32       1.0  0.15510  0.52685  0.87410  1.0000
  H   H33       1.0  0.84218  0.37010  0.88166  1.0000
  H   H34       1.0  0.62909  0.47316  0.90621  1.0000
  H   H35       1.0  0.52972  0.37370  0.60309  1.0000
  H   H36       1.0  0.84261  0.47382  0.62206  1.0000
  H   H37       1.0  0.29364  0.70500  0.73690  1.0000
  H   H38       1.0  0.29190  0.58597  0.74103  1.0000
  H   H39       1.0  0.41055  0.70417  0.74366  1.0000
  H   H40       1.0  0.70504  0.29487  0.76235  1.0000
  H   H41       1.0  0.70571  0.41336  0.75543  1.0000
  H   H42       1.0  0.58760  0.29480  0.75448  1.0000
  H   H43       1.0  0.56097  0.56257  0.59510  1.0000
  H   H44       1.0  0.44101  0.99855  0.58982  1.0000
  H   H45       1.0  0.99692  0.43846  0.57325  1.0000
  H   H46       1.0  0.44137  0.44092  0.91412  1.0000
  H   H47       1.0  0.00106  0.56081  0.90603  1.0000
  H   H48       1.0  0.56172  0.00027  0.91756  1.0000
  C   C1        1.0  0.36014  0.57791  0.17258  1.0000
  C   C2        1.0  0.41700  0.63605  0.32970  1.0000
  C   C3        1.0  0.78081  0.36479  0.33714  1.0000
  C   C4        1.0  0.58079  0.21922  0.33159  1.0000
  C   C5        1.0  0.63850  0.21985  0.18153  1.0000
  C   C6        1.0  0.78081  0.42019  0.17064  1.0000
  C   C7        1.0  0.38202  0.55575  0.17516  1.0000
  C   C8        1.0  0.43930  0.61436  0.33323  1.0000
  C   C9        1.0  0.82488  0.38637  0.33526  1.0000
  C   C10       1.0  0.55904  0.17486  0.33245  1.0000
  C   C11       1.0  0.61717  0.17548  0.18159  1.0000
  C   C12       1.0  0.82494  0.44230  0.16854  1.0000
  C   C13       1.0  0.42942  0.51139  0.33163  1.0000
  C   C14       1.0  0.48871  0.91779  0.32980  1.0000
  C   C15       1.0  0.08216  0.56982  0.30896  1.0000
  C   C16       1.0  0.48483  0.56755  0.18499  1.0000
  C   C17       1.0  0.08029  0.51279  0.16015  1.0000
  C   C18       1.0  0.43314  0.91712  0.17775  1.0000
  C   C19       1.0  0.56826  0.48753  0.18836  1.0000
  C   C20       1.0  0.51492  0.08196  0.18019  1.0000
  C   C21       1.0  0.91607  0.43118  0.17331  1.0000
  C   C22       1.0  0.51259  0.43057  0.33063  1.0000
  C   C23       1.0  0.91795  0.48833  0.32159  1.0000
  C   C24       1.0  0.57026  0.08286  0.33519  1.0000
  C   C25       1.0  0.46313  0.50050  0.30159  1.0000
  C   C26       1.0  0.49988  0.96270  0.29995  1.0000
  C   C27       1.0  0.03694  0.53623  0.28121  1.0000
  C   C28       1.0  0.49665  0.53454  0.21750  1.0000
  C   C29       1.0  0.03583  0.50188  0.19422  1.0000
  C   C30       1.0  0.46642  0.96228  0.21110  1.0000
  C   C31       1.0  0.53437  0.49801  0.21861  1.0000
  C   C32       1.0  0.50352  0.03713  0.21267  1.0000
  C   C33       1.0  0.96128  0.46489  0.19992  1.0000
  C   C34       1.0  0.50082  0.46382  0.30192  1.0000
  C   C35       1.0  0.96240  0.49925  0.28680  1.0000
  C   C36       1.0  0.53692  0.03761  0.30245  1.0000
  C   C37       1.0  0.31079  0.68745  0.23830  1.0000
  C   C38       1.0  0.30970  0.62062  0.24381  1.0000
  C   C39       1.0  0.37640  0.68683  0.24359  1.0000
  C   C40       1.0  0.68848  0.31283  0.25712  1.0000
  C   C41       1.0  0.68847  0.37912  0.25258  1.0000
  C   C42       1.0  0.62232  0.31237  0.25694  1.0000
  C   C43       1.0  0.28747  0.64275  0.23964  1.0000
  C   C44       1.0  0.35413  0.64214  0.24541  1.0000
  C   C45       1.0  0.35526  0.71001  0.24074  1.0000
  C   C46       1.0  0.71115  0.35749  0.25505  1.0000
  C   C47       1.0  0.64405  0.35707  0.25453  1.0000
  C   C48       1.0  0.64405  0.28972  0.25712  1.0000
  C   C49       1.0  0.42154  0.57418  0.25586  1.0000
  C   C50       1.0  0.84665  0.42506  0.25078  1.0000
  C   C51       1.0  0.57747  0.15325  0.25749  1.0000
  C   C52       1.0  0.37715  0.61841  0.24945  1.0000
  C   C53       1.0  0.62089  0.24258  0.25679  1.0000
  C   C54       1.0  0.75799  0.38109  0.25430  1.0000
  C   C55       1.0  0.53346  0.53447  0.17276  1.0000
  C   C56       1.0  0.46707  0.99945  0.16381  1.0000
  C   C57       1.0  0.99795  0.46507  0.15026  1.0000
  C   C58       1.0  0.46398  0.46391  0.34673  1.0000
  C   C59       1.0  0.00026  0.53608  0.33063  1.0000
  C   C60       1.0  0.53623  0.00038  0.34960  1.0000
  C   C61       1.0  0.21785  0.63636  0.65426  1.0000
  C   C62       1.0  0.21708  0.57927  0.81073  1.0000
  C   C63       1.0  0.78067  0.36222  0.82579  1.0000
  C   C64       1.0  0.63798  0.42040  0.83719  1.0000
  C   C65       1.0  0.58146  0.36387  0.67230  1.0000
  C   C66       1.0  0.78090  0.42097  0.68516  1.0000
  C   C67       1.0  0.17372  0.61464  0.65230  1.0000
  C   C68       1.0  0.17296  0.55710  0.80961  1.0000
  C   C69       1.0  0.82475  0.38372  0.82353  1.0000
  C   C70       1.0  0.61650  0.44298  0.83789  1.0000
  C   C71       1.0  0.55960  0.38607  0.67165  1.0000
  C   C72       1.0  0.82499  0.44292  0.68207  1.0000
  C   C73       1.0  0.43154  0.51342  0.82538  1.0000
  C   C74       1.0  0.48785  0.91713  0.82843  1.0000
  C   C75       1.0  0.08201  0.56840  0.81205  1.0000
  C   C76       1.0  0.48658  0.56946  0.67684  1.0000
  C   C77       1.0  0.08019  0.51254  0.65438  1.0000
  C   C78       1.0  0.43293  0.91685  0.67313  1.0000
  C   C79       1.0  0.57008  0.48881  0.67909  1.0000
  C   C80       1.0  0.51452  0.08162  0.67871  1.0000
  C   C81       1.0  0.91609  0.43059  0.66952  1.0000
  C   C82       1.0  0.51496  0.43341  0.83068  1.0000
  C   C83       1.0  0.91797  0.48687  0.82537  1.0000
  C   C84       1.0  0.56994  0.08254  0.83251  1.0000
  C   C85       1.0  0.46555  0.50300  0.79678  1.0000
  C   C86       1.0  0.49953  0.96222  0.79768  1.0000
  C   C87       1.0  0.03682  0.53504  0.78237  1.0000
  C   C88       1.0  0.49869  0.53665  0.70957  1.0000
  C   C89       1.0  0.03573  0.50131  0.69043  1.0000
  C   C90       1.0  0.46625  0.96191  0.70766  1.0000
  C   C91       1.0  0.53667  0.50018  0.71062  1.0000
  C   C92       1.0  0.50323  0.03674  0.71000  1.0000
  C   C93       1.0  0.96124  0.46413  0.69764  1.0000
  C   C94       1.0  0.50351  0.46668  0.79858  1.0000
  C   C95       1.0  0.96235  0.49800  0.78875  1.0000
  C   C96       1.0  0.53660  0.03721  0.80007  1.0000
  C   C97       1.0  0.31043  0.68739  0.73820  1.0000
  C   C98       1.0  0.30958  0.62061  0.74071  1.0000
  C   C99       1.0  0.37611  0.68685  0.74252  1.0000
  C   C100      1.0  0.68808  0.31227  0.75987  1.0000
  C   C101      1.0  0.68848  0.37872  0.75645  1.0000
  C   C102      1.0  0.62206  0.31212  0.75619  1.0000
  C   C103      1.0  0.28728  0.64268  0.73736  1.0000
  C   C104      1.0  0.35403  0.64217  0.74364  1.0000
  C   C105      1.0  0.35487  0.70990  0.74088  1.0000
  C   C106      1.0  0.71104  0.35694  0.75798  1.0000
  C   C107      1.0  0.64404  0.35683  0.75567  1.0000
  C   C108      1.0  0.64367  0.28936  0.75894  1.0000
  C   C109      1.0  0.15155  0.57511  0.73067  1.0000
  C   C110      1.0  0.84668  0.42406  0.75138  1.0000
  C   C111      1.0  0.57736  0.42558  0.75468  1.0000
  C   C112      1.0  0.24037  0.61927  0.73379  1.0000
  C   C113      1.0  0.75788  0.38026  0.75658  1.0000
  C   C114      1.0  0.62095  0.38054  0.75481  1.0000
  C   C115      1.0  0.53535  0.53639  0.66321  1.0000
  C   C116      1.0  0.46691  0.99906  0.66043  1.0000
  C   C117      1.0  0.99787  0.46470  0.64467  1.0000
  C   C118      1.0  0.46692  0.46696  0.84522  1.0000
  C   C119      1.0  0.00019  0.53458  0.83472  1.0000
  C   C120      1.0  0.53588  0.99995  0.84726  1.0000
  N   N1        1.0  0.44842  0.89207  0.25243  1.0000
  N   N2        1.0  0.10640  0.55366  0.23383  1.0000
  N   N3        1.0  0.44438  0.55187  0.25815  1.0000
  N   N4        1.0  0.55518  0.10775  0.25758  1.0000
  N   N5        1.0  0.89190  0.44738  0.24870  1.0000
  N   N6        1.0  0.55327  0.44677  0.25881  1.0000
  N   N7        1.0  0.44774  0.89170  0.74957  1.0000
  N   N8        1.0  0.10628  0.55296  0.73144  1.0000
  N   N9        1.0  0.44606  0.55359  0.75014  1.0000
  N   N10       1.0  0.55437  0.10738  0.75844  1.0000
  N   N11       1.0  0.89186  0.44633  0.74866  1.0000
  N   N12       1.0  0.55501  0.44845  0.75466  1.0000
  O   O1        1.0  0.49474  0.09455  0.10046  1.0000
  O   O2        1.0  0.90198  0.39681  0.10043  1.0000
  O   O3        1.0  0.60177  0.50880  0.11493  1.0000
  O   O4        1.0  0.90573  0.50913  0.40035  1.0000
  O   O5        1.0  0.60335  0.09632  0.41530  1.0000
  O   O6        1.0  0.49247  0.39660  0.40292  1.0000
  O   O7        1.0  0.50912  0.90524  0.40805  1.0000
  O   O8        1.0  0.09621  0.60394  0.38370  1.0000
  O   O9        1.0  0.39615  0.49072  0.40732  1.0000
  O   O10       1.0  0.09260  0.49197  0.08215  1.0000
  O   O11       1.0  0.39980  0.90369  0.09975  1.0000
  O   O12       1.0  0.50475  0.60085  0.10807  1.0000
  O   O13       1.0  0.49455  0.09435  0.59844  1.0000
  O   O14       1.0  0.90210  0.39678  0.59220  1.0000
  O   O15       1.0  0.60319  0.50894  0.60172  1.0000
  O   O16       1.0  0.90580  0.50731  0.90725  1.0000
  O   O17       1.0  0.60354  0.09625  0.90887  1.0000
  O   O18       1.0  0.49485  0.40029  0.90871  1.0000
  O   O19       1.0  0.50750  0.90394  0.90806  1.0000
  O   O20       1.0  0.09600  0.60187  0.89166  1.0000
  O   O21       1.0  0.39824  0.49263  0.90068  1.0000
  O   O22       1.0  0.09241  0.49213  0.57294  1.0000
  O   O23       1.0  0.39998  0.90368  0.59240  1.0000
  O   O24       1.0  0.50651  0.60283  0.60029  1.0000
  C  Sn1       1.0  0.38340  0.81538  0.37100  1.0000
  C   C121      1.0  0.42299  0.84260  0.30049  1.0000
  C  Sn2       1.0  0.44031  0.82712  0.18144  1.0000
  C  Sn3       1.0  0.41757  0.78354  0.13175  1.0000
  C   C122      1.0  0.37801  0.75635  0.20222  1.0000
  C  Sn4       1.0  0.36067  0.77179  0.32131  1.0000
  O  Te1       1.0  0.36670  0.83154  0.48979  1.0000
  O  Te2       1.0  0.47994  0.85494  0.11276  1.0000
  O  Te3       1.0  0.43432  0.76739  0.01286  1.0000
  O  Te4       1.0  0.32106  0.74400  0.38995  1.0000
  Mg  Mg1       1.0  0.49179  0.82109  0.95534  1.0000
  Mg  Mg2       1.0  0.31157  0.78108  0.54731  1.0000
  C  Sn5       1.0  0.62919  0.20970  0.63127  1.0000
  C   C123      1.0  0.61758  0.23708  0.70801  1.0000
  C  Sn6       1.0  0.58590  0.22189  0.83052  1.0000
  C  Sn7       1.0  0.56539  0.17844  0.87742  1.0000
  C   C124      1.0  0.57700  0.15109  0.80072  1.0000
  C  Sn8       1.0  0.60868  0.16625  0.67816  1.0000
  O  Te5       1.0  0.66095  0.22557  0.50909  1.0000
  O  Te6       1.0  0.57484  0.24987  0.90543  1.0000
  O  Te7       1.0  0.53361  0.16259  0.99969  1.0000
  O  Te8       1.0  0.61975  0.13830  0.60330  1.0000
  Mg  Mg3       1.0  0.52729  0.20989  0.06553  1.0000
  Mg  Mg4       1.0  0.66490  0.17498  0.44326  1.0000
  C  Sn9       1.0  0.62890  0.44663  0.29214  1.0000
  C   C125      1.0  0.58849  0.43324  0.22621  1.0000
  C  Sn10      1.0  0.56123  0.39044  0.18334  1.0000
  C  Sn11      1.0  0.57461  0.36038  0.20695  1.0000
  C   C126      1.0  0.61499  0.37377  0.27286  1.0000
  C  Sn12      1.0  0.64228  0.41657  0.31575  1.0000
  O  Te9       1.0  0.65563  0.48957  0.33413  1.0000
  O  Te10      1.0  0.52099  0.37783  0.11758  1.0000
  O  Te11      1.0  0.54784  0.31741  0.16489  1.0000
  O  Te12      1.0  0.68250  0.42918  0.38150  1.0000
  Mg  Mg5       1.0  0.49604  0.31577  0.07959  1.0000
  Mg  Mg6       1.0  0.70745  0.49122  0.41961  1.0000
  C  Sn13      1.0  0.20909  0.64073  0.19825  1.0000
  C   C127      1.0  0.23590  0.62745  0.26545  1.0000
  C  Sn14      1.0  0.21996  0.58485  0.30807  1.0000
  C  Sn15      1.0  0.17631  0.55489  0.28290  1.0000
  C   C128      1.0  0.14953  0.56817  0.21572  1.0000
  C  Sn16      1.0  0.16544  0.61077  0.17309  1.0000
  O  Te13      1.0  0.22572  0.68348  0.15654  1.0000
  O  Te14      1.0  0.24738  0.57234  0.37511  1.0000
  O  Te15      1.0  0.15969  0.51211  0.32468  1.0000
  O  Te16      1.0  0.13805  0.62328  0.10605  1.0000
  Mg  Mg7       1.0  0.20971  0.51055  0.41212  1.0000
  Mg  Mg8       1.0  0.17569  0.68505  0.06892  1.0000
  C  Sn17      1.0  0.43310  0.61769  0.87290  1.0000
  C   C129      1.0  0.42125  0.57783  0.80162  1.0000
  C  Sn18      1.0  0.38778  0.55871  0.68468  1.0000
  C  Sn19      1.0  0.36569  0.57990  0.63792  1.0000
  C   C130      1.0  0.37755  0.61974  0.70916  1.0000
  C  Sn20      1.0  0.41102  0.63887  0.82615  1.0000
  O  Te17      1.0  0.46667  0.63620  0.98955  1.0000
  O  Te18      1.0  0.37650  0.51883  0.61517  1.0000
  O  Te19      1.0  0.33211  0.56135  0.52118  1.0000
  O  Te20      1.0  0.42230  0.67873  0.89561  1.0000
  Mg  Mg9       1.0  0.32862  0.50666  0.46146  1.0000
  Mg  Mg10      1.0  0.46778  0.68768  0.04926  1.0000
  C  Sn21      1.0  0.38463  0.81528  0.87766  1.0000
  C   C131      1.0  0.42305  0.84245  0.79872  1.0000
  C  Sn22      1.0  0.43873  0.82680  0.67332  1.0000
  C  Sn23      1.0  0.41551  0.78309  0.62573  1.0000
  C   C132      1.0  0.37711  0.75595  0.70461  1.0000
  C  Sn24      1.0  0.36141  0.77157  0.83006  1.0000
  O  Te21      1.0  0.36715  0.82835  0.00270  1.0000
  O  Te22      1.0  0.47723  0.85458  0.59626  1.0000
  O  Te23      1.0  0.43062  0.76677  0.50058  1.0000
  O  Te24      1.0  0.32293  0.74382  0.90708  1.0000
  Mg  Mg11      1.0  0.48459  0.81722  0.43257  1.0000
  Mg  Mg12      1.0  0.31312  0.77789  0.07071  1.0000
