data_image0
_chemical_formula_structural       H12C60N16O24C2Sn2C2HTe2HMgC2Sn2C2HTe2HMgC2Sn2C2HTe2HMgC2Sn2C2HTe2HMgC2Sn2C2HTe2HMgC2Sn2C2HTe2HMgC2Sn2C2HTe2HMgC2Sn2C2HTe2HMgC2Sn2C2HTe2HMgC2Sn2C2HTe2HMgC2Sn2C2HTe2HMgC2Sn2C2HTe2HMg
_chemical_formula_sum              "H36 C108 N16 O24 Sn24 Te24 Mg12"
_cell_length_a       31.2629
_cell_length_b       31.3711
_cell_length_c       8.16547
_cell_angle_alpha    95.7845
_cell_angle_beta     103.026
_cell_angle_gamma    120.007

_symmetry_space_group_name_H-M    'P1'
_space_group_IT_number       1

loop_
  _space_group_symop_operation_xyz
  'x, y, z'

loop_
  _atom_site_type_symbol
  _atom_site_label
  _atom_site_symmetry_multiplicity
  _atom_site_fract_x
  _atom_site_fract_y
  _atom_site_fract_z
  _atom_site_occupancy
  H   H1        1.0  0.99796  0.57550  0.98677  1.0000
  H   H2        1.0  0.42647  0.42087  0.06419  1.0000
  H   H3        1.0  0.57826  0.99337  0.97260  1.0000
  H   H4        1.0  0.00239  0.41639  0.00806  1.0000
  H   H5        1.0  0.57128  0.56915  0.92383  1.0000
  H   H6        1.0  0.42796  0.00173  0.07466  1.0000
  H   H7        1.0  0.99801  0.58286  0.49867  1.0000
  H   H8        1.0  0.43154  0.43479  0.58601  1.0000
  H   H9        1.0  0.57608  0.00179  0.47680  1.0000
  H   H10       1.0  0.99950  0.42161  0.50348  1.0000
  H   H11       1.0  0.57013  0.57608  0.40180  1.0000
  H   H12       1.0  0.42388  0.00852  0.56763  1.0000
  C   C1        1.0  0.04129  0.49372  0.97539  1.0000
  C   C2        1.0  0.49742  0.53695  0.97704  1.0000
  C   C3        1.0  0.46294  0.95701  0.05561  1.0000
  C   C4        1.0  0.95930  0.49826  0.01913  1.0000
  C   C5        1.0  0.50066  0.45286  0.01198  1.0000
  C   C6        1.0  0.54327  0.03812  0.99278  1.0000
  C   C7        1.0  0.49902  0.04822  0.52231  1.0000
  C   C8        1.0  0.54127  0.50270  0.46613  1.0000
  C   C9        1.0  0.95832  0.46020  0.52463  1.0000
  C   C10       1.0  0.50093  0.96199  0.52231  1.0000
  C   C11       1.0  0.46045  0.50783  0.52018  1.0000
  C   C12       1.0  0.03867  0.54392  0.47429  1.0000
  C   C13       1.0  0.09130  0.50341  0.95423  1.0000
  C   C14       1.0  0.48410  0.57585  0.95918  1.0000
  C   C15       1.0  0.42524  0.90764  0.08401  1.0000
  C   C16       1.0  0.91081  0.49008  0.04849  1.0000
  C   C17       1.0  0.51333  0.41314  0.02422  1.0000
  C   C18       1.0  0.57979  0.08703  0.95883  1.0000
  C   C19       1.0  0.50864  0.09925  0.51453  1.0000
  C   C20       1.0  0.57979  0.48913  0.44808  1.0000
  C   C21       1.0  0.90870  0.42093  0.54623  1.0000
  C   C22       1.0  0.49048  0.91028  0.52480  1.0000
  C   C23       1.0  0.42251  0.52124  0.54277  1.0000
  C   C24       1.0  0.08653  0.58227  0.44161  1.0000
  C   C25       1.0  0.99901  0.54145  0.99060  1.0000
  C   C26       1.0  0.45767  0.45271  0.03502  1.0000
  C   C27       1.0  0.54608  0.99513  0.99496  1.0000
  C   C28       1.0  0.00126  0.45035  0.00265  1.0000
  C   C29       1.0  0.54051  0.53736  0.95473  1.0000
  C   C30       1.0  0.46031  0.00003  0.05395  1.0000
  C   C31       1.0  0.03956  0.49981  0.47822  1.0000
  C   C32       1.0  0.49837  0.54663  0.46877  1.0000
  C   C33       1.0  0.45915  0.96405  0.54876  1.0000
  C   C34       1.0  0.95840  0.50493  0.52597  1.0000
  C   C35       1.0  0.50271  0.46352  0.51583  1.0000
  C   C36       1.0  0.54086  0.04629  0.49704  1.0000
  C   C37       1.0  0.50202  0.04044  0.02197  1.0000
  C   C38       1.0  0.54089  0.49390  0.97463  1.0000
  C   C39       1.0  0.96005  0.45412  0.02374  1.0000
  C   C40       1.0  0.50439  0.95462  0.02732  1.0000
  C   C41       1.0  0.45778  0.49653  0.01739  1.0000
  C   C42       1.0  0.03987  0.53746  0.96766  1.0000
  C   C43       1.0  0.08914  0.50915  0.45478  1.0000
  C   C44       1.0  0.48458  0.58530  0.44897  1.0000
  C   C45       1.0  0.42126  0.91431  0.57455  1.0000
  C   C46       1.0  0.91041  0.49689  0.55834  1.0000
  C   C47       1.0  0.51545  0.42398  0.53322  1.0000
  C   C48       1.0  0.57906  0.09613  0.47373  1.0000
  C   C49       1.0  0.51088  0.09095  0.00998  1.0000
  C   C50       1.0  0.58013  0.48145  0.95864  1.0000
  C   C51       1.0  0.91083  0.41524  0.04973  1.0000
  C   C52       1.0  0.49435  0.90326  0.03487  1.0000
  C   C53       1.0  0.41950  0.50980  0.03825  1.0000
  C   C54       1.0  0.08773  0.57582  0.93409  1.0000
  C   C55       1.0  0.99828  0.54833  0.49944  1.0000
  C   C56       1.0  0.46113  0.46486  0.54546  1.0000
  C   C57       1.0  0.54343  0.00316  0.49626  1.0000
  C   C58       1.0  0.99916  0.45610  0.50216  1.0000
  C   C59       1.0  0.54035  0.54566  0.44065  1.0000
  C   C60       1.0  0.45660  0.00717  0.54895  1.0000
  N   N1        1.0  0.11802  0.55377  0.93219  1.0000
  N   N2        1.0  0.43684  0.55820  0.99993  1.0000
  N   N3        1.0  0.44560  0.87642  0.06554  1.0000
  N   N4        1.0  0.88225  0.43886  0.06228  1.0000
  N   N5        1.0  0.56162  0.43276  0.99182  1.0000
  N   N6        1.0  0.55961  0.11872  0.97757  1.0000
  N   N7        1.0  0.33219  0.66339  0.99055  1.0000
  N   N8        1.0  0.66863  0.33043  0.01498  1.0000
  N   N9        1.0  0.11662  0.56000  0.43828  1.0000
  N   N10       1.0  0.43799  0.56819  0.49503  1.0000
  N   N11       1.0  0.44184  0.88322  0.55552  1.0000
  N   N12       1.0  0.88070  0.44480  0.56245  1.0000
  N   N13       1.0  0.56183  0.44148  0.48974  1.0000
  N   N14       1.0  0.55823  0.12739  0.48795  1.0000
  N   N15       1.0  0.32991  0.67043  0.48662  1.0000
  N   N16       1.0  0.66753  0.33797  0.51250  1.0000
  O   O1        1.0  0.10734  0.47507  0.95806  1.0000
  O   O2        1.0  0.50841  0.61449  0.91260  1.0000
  O   O3        1.0  0.38537  0.89560  0.11917  1.0000
  O   O4        1.0  0.89785  0.52073  0.06070  1.0000
  O   O5        1.0  0.48835  0.37228  0.05752  1.0000
  O   O6        1.0  0.61883  0.09788  0.91959  1.0000
  O   O7        1.0  0.48000  0.11420  0.52792  1.0000
  O   O8        1.0  0.61859  0.51268  0.40489  1.0000
  O   O9        1.0  0.89392  0.37684  0.54684  1.0000
  O   O10       1.0  0.51723  0.89361  0.50323  1.0000
  O   O11       1.0  0.38598  0.49696  0.59615  1.0000
  O   O12       1.0  0.09810  0.62399  0.41849  1.0000
  O   O13       1.0  0.10405  0.47987  0.45179  1.0000
  O   O14       1.0  0.50812  0.62357  0.39974  1.0000
  O   O15       1.0  0.38124  0.90190  0.60871  1.0000
  O   O16       1.0  0.89870  0.52821  0.58043  1.0000
  O   O17       1.0  0.49205  0.38483  0.57812  1.0000
  O   O18       1.0  0.62002  0.10799  0.44701  1.0000
  O   O19       1.0  0.48208  0.10566  0.02409  1.0000
  O   O20       1.0  0.61969  0.50667  0.92096  1.0000
  O   O21       1.0  0.89676  0.37172  0.05658  1.0000
  O   O22       1.0  0.52121  0.88650  0.01612  1.0000
  O   O23       1.0  0.38145  0.48465  0.08369  1.0000
  O   O24       1.0  0.09925  0.61744  0.90981  1.0000
  C   C61       1.0  0.33983  0.57943  0.04870  1.0000
  C   C62       1.0  0.35478  0.62733  0.01953  1.0000
  C  Sn1       1.0  0.49473  0.72831  0.96751  1.0000
  C  Sn2       1.0  0.52411  0.70672  0.94433  1.0000
  C   C63       1.0  0.50881  0.65876  0.97372  1.0000
  C   C64       1.0  0.36878  0.55811  0.02579  1.0000
  H   H13       1.0  0.30579  0.55888  0.08890  1.0000
  O  Te1       1.0  0.50913  0.77613  0.93900  1.0000
  O  Te2       1.0  0.56814  0.73274  0.89235  1.0000
  H   H14       1.0  0.35719  0.52101  0.04826  1.0000
  Mg  Mg1       1.0  0.57215  0.79678  0.86956  1.0000
  C   C65       1.0  0.33721  0.75249  0.92714  1.0000
  C   C66       1.0  0.35425  0.72242  0.99473  1.0000
  C  Sn3       1.0  0.30923  0.67086  0.10496  1.0000
  C  Sn4       1.0  0.34375  0.72450  0.14813  1.0000
  C   C67       1.0  0.32631  0.75424  0.07993  1.0000
  C   C68       1.0  0.37122  0.80540  0.96971  1.0000
  H   H15       1.0  0.29762  0.73473  0.84193  1.0000
  O  Te3       1.0  0.32563  0.64026  0.17129  1.0000
  O  Te4       1.0  0.39496  0.74802  0.25805  1.0000
  H   H16       1.0  0.35802  0.82868  0.91749  1.0000
  Mg  Mg2       1.0  0.39907  0.69008  0.31570  1.0000
  C   C69       1.0  0.20131  0.55924  0.82957  1.0000
  C   C70       1.0  0.17477  0.57348  0.91568  1.0000
  C  Sn5       1.0  0.10440  0.54833  0.02326  1.0000
  C  Sn6       1.0  0.15764  0.58361  0.04474  1.0000
  C   C71       1.0  0.27990  0.64311  0.95793  1.0000
  C   C72       1.0  0.25382  0.59402  0.85064  1.0000
  H   H17       1.0  0.18113  0.52126  0.74648  1.0000
  O  Te5       1.0  0.07730  0.56192  0.10837  1.0000
  O  Te6       1.0  0.18425  0.63279  0.15144  1.0000
  H   H18       1.0  0.27437  0.58301  0.78390  1.0000
  Mg  Mg3       1.0  0.13050  0.63335  0.23993  1.0000
  C   C73       1.0  0.56236  0.34510  0.88251  1.0000
  C   C74       1.0  0.58017  0.39440  0.97052  1.0000
  C  Sn7       1.0  0.53596  0.35281  0.07644  1.0000
  C  Sn8       1.0  0.57052  0.33553  0.09428  1.0000
  C   C75       1.0  0.55233  0.28615  0.00559  1.0000
  C   C76       1.0  0.59643  0.32804  0.89999  1.0000
  H   H19       1.0  0.52217  0.32018  0.80073  1.0000
  O  Te7       1.0  0.55310  0.40194  0.16350  1.0000
  O  Te8       1.0  0.62253  0.36724  0.19925  1.0000
  H   H20       1.0  0.58266  0.28988  0.83177  1.0000
  Mg  Mg4       1.0  0.62747  0.43094  0.29152  1.0000
  C   C77       1.0  0.57184  0.21460  0.05962  1.0000
  C   C78       1.0  0.67377  0.25116  0.98069  1.0000
  C  Sn9       1.0  0.71499  0.26458  0.91417  1.0000
  C  Sn10      1.0  0.75095  0.31658  0.92715  1.0000
  C   C79       1.0  0.64870  0.27975  0.00646  1.0000
  C   C80       1.0  0.60730  0.26590  0.07253  1.0000
  H   H21       1.0  0.53983  0.20390  0.11083  1.0000
  O  Te9       1.0  0.72027  0.22658  0.83566  1.0000
  O  Te10      1.0  0.79251  0.33104  0.86182  1.0000
  H   H22       1.0  0.60279  0.29498  0.13374  1.0000
  Mg  Mg5       1.0  0.78325  0.26532  0.76622  1.0000
  C   C81       1.0  0.79903  0.36290  0.15569  1.0000
  C   C82       1.0  0.82525  0.40078  0.07450  1.0000
  C  Sn11      1.0  0.89553  0.49420  0.97653  1.0000
  C  Sn12      1.0  0.84252  0.47517  0.95980  1.0000
  C   C83       1.0  0.72059  0.36319  0.04163  1.0000
  C   C84       1.0  0.74676  0.34413  0.13932  1.0000
  H   H23       1.0  0.81928  0.34817  0.23135  1.0000
  O  Te11      1.0  0.92230  0.53202  0.89621  1.0000
  O  Te12      1.0  0.81583  0.49381  0.86270  1.0000
  H   H24       1.0  0.72646  0.31482  0.20226  1.0000
  Mg  Mg6       1.0  0.86910  0.54528  0.77769  1.0000
  C   C85       1.0  0.57689  0.34042  0.38085  1.0000
  C   C86       1.0  0.62868  0.35810  0.47097  1.0000
  C  Sn13      1.0  0.66122  0.40674  0.58363  1.0000
  C  Sn14      1.0  0.64144  0.43817  0.60627  1.0000
  C   C87       1.0  0.58957  0.42011  0.51561  1.0000
  C   C88       1.0  0.55734  0.37139  0.40315  1.0000
  H   H25       1.0  0.55194  0.30271  0.29391  1.0000
  O  Te13      1.0  0.71287  0.42381  0.67261  1.0000
  O  Te14      1.0  0.67312  0.48693  0.71812  1.0000
  H   H26       1.0  0.51724  0.35770  0.33349  1.0000
  Mg  Mg7       1.0  0.74078  0.49313  0.81048  1.0000
  C   C89       1.0  0.78260  0.43298  0.46280  1.0000
  C   C90       1.0  0.82210  0.42654  0.54981  1.0000
  C  Sn15      1.0  0.81029  0.38617  0.62819  1.0000
  C  Sn16      1.0  0.75793  0.35166  0.61903  1.0000
  C   C91       1.0  0.71869  0.35840  0.53157  1.0000
  C   C92       1.0  0.73094  0.39894  0.45365  1.0000
  H   H27       1.0  0.79207  0.46432  0.40243  1.0000
  O  Te15      1.0  0.85023  0.38031  0.71466  1.0000
  O  Te16      1.0  0.74504  0.31097  0.69616  1.0000
  H   H28       1.0  0.70035  0.40389  0.38619  1.0000
  Mg  Mg8       1.0  0.81314  0.31896  0.79926  1.0000
  C   C93       1.0  0.57179  0.22409  0.57088  1.0000
  C   C94       1.0  0.57685  0.18575  0.49354  1.0000
  C  Sn17      1.0  0.61657  0.19785  0.42034  1.0000
  C  Sn18      1.0  0.65183  0.24932  0.42489  1.0000
  C   C95       1.0  0.64646  0.28741  0.50268  1.0000
  C   C96       1.0  0.60656  0.27487  0.57549  1.0000
  H   H29       1.0  0.54095  0.21440  0.62730  1.0000
  O  Te17      1.0  0.62106  0.15907  0.34352  1.0000
  O  Te18      1.0  0.69189  0.26248  0.35276  1.0000
  H   H30       1.0  0.60268  0.30457  0.63546  1.0000
  Mg  Mg9       1.0  0.68201  0.19608  0.26270  1.0000
  C   C97       1.0  0.42738  0.65037  0.43170  1.0000
  C   C98       1.0  0.41923  0.60787  0.49365  1.0000
  C  Sn19      1.0  0.37638  0.58103  0.55065  1.0000
  C  Sn20      1.0  0.34110  0.59712  0.54532  1.0000
  C   C99       1.0  0.34957  0.63967  0.48300  1.0000
  C   C100      1.0  0.39259  0.66626  0.42634  1.0000
  H   H31       1.0  0.46064  0.67094  0.38777  1.0000
  O  Te19      1.0  0.36883  0.53866  0.61222  1.0000
  O  Te20      1.0  0.29794  0.57098  0.60142  1.0000
  H   H32       1.0  0.39887  0.69915  0.37827  1.0000
  Mg  Mg10      1.0  0.30431  0.51554  0.67434  1.0000
  C   C101      1.0  0.22911  0.57923  0.35168  1.0000
  C   C102      1.0  0.26703  0.63086  0.42552  1.0000
  C  Sn21      1.0  0.25573  0.66184  0.51776  1.0000
  C  Sn22      1.0  0.20550  0.64061  0.53624  1.0000
  C   C103      1.0  0.16785  0.58891  0.46198  1.0000
  C   C104      1.0  0.17956  0.55826  0.36990  1.0000
  H   H33       1.0  0.23818  0.55551  0.28051  1.0000
  O  Te21      1.0  0.29407  0.71335  0.59065  1.0000
  O  Te22      1.0  0.19317  0.67070  0.62782  1.0000
  H   H34       1.0  0.15020  0.51828  0.31284  1.0000
  Mg  Mg11      1.0  0.25853  0.73882  0.70351  1.0000
  C   C105      1.0  0.43701  0.79720  0.65396  1.0000
  C   C106      1.0  0.42196  0.82612  0.56716  1.0000
  C  Sn23      1.0  0.37108  0.80337  0.45527  1.0000
  C  Sn24      1.0  0.33469  0.75069  0.43012  1.0000
  C   C107      1.0  0.35012  0.72211  0.51766  1.0000
  C   C108      1.0  0.40114  0.74525  0.62928  1.0000
  H   H35       1.0  0.47647  0.81511  0.74040  1.0000
  O  Te23      1.0  0.35669  0.83281  0.36952  1.0000
  O  Te24      1.0  0.28359  0.72700  0.31908  1.0000
  H   H36       1.0  0.41277  0.72286  0.69655  1.0000
  Mg  Mg12      1.0  0.28259  0.78320  0.23143  1.0000
