data_image0
_chemical_formula_structural       H60C78N8O8C2Sn2C2HTe2HMgC2Sn2C2HTe2HMgC2Sn2C2HTe2HMgC2Sn2C2HTe2HMgC2Sn2C2HTe2HMgC2Sn2C2HTe2HMgC2Sn2C2HTe2HMgC2Sn2C2HTe2HMg
_chemical_formula_sum              "H76 C110 N8 O8 Sn16 Te16 Mg8"
_cell_length_a       13.6404
_cell_length_b       8.37266
_cell_length_c       25.2617
_cell_angle_alpha    89.803
_cell_angle_beta     90.8363
_cell_angle_gamma    89.5256

_symmetry_space_group_name_H-M    'P1'
_space_group_IT_number       1

loop_
  _space_group_symop_operation_xyz
  'x, y, z'

loop_
  _atom_site_type_symbol
  _atom_site_label
  _atom_site_symmetry_multiplicity
  _atom_site_fract_x
  _atom_site_fract_y
  _atom_site_fract_z
  _atom_site_occupancy
  H   H1        1.0  0.73700  0.54366  0.78116  1.0000
  H   H2        1.0  0.00531  0.71236  0.71450  1.0000
  H   H3        1.0  0.91377  0.92574  0.66771  1.0000
  H   H4        1.0  0.64557  0.76070  0.73503  1.0000
  H   H5        1.0  0.08075  0.30860  0.83056  1.0000
  H   H6        1.0  0.95607  0.44256  0.67957  1.0000
  H   H7        1.0  0.17307  0.08986  0.78727  1.0000
  H   H8        1.0  0.04367  0.21917  0.63710  1.0000
  H   H9        1.0  0.80688  0.71126  0.24537  1.0000
  H   H10       1.0  0.80436  0.29379  0.75318  1.0000
  H   H11       1.0  0.93849  0.56124  0.39331  1.0000
  H   H12       1.0  0.94225  0.44339  0.89856  1.0000
  H   H13       1.0  0.71453  0.92090  0.29105  1.0000
  H   H14       1.0  0.71170  0.09082  0.80142  1.0000
  H   H15       1.0  0.84391  0.77094  0.43960  1.0000
  H   H16       1.0  0.84819  0.24045  0.94741  1.0000
  H   H17       1.0  0.83402  0.14925  0.67695  1.0000
  H   H18       1.0  0.84180  0.86634  0.15185  1.0000
  H   H19       1.0  0.05444  0.94714  0.63266  1.0000
  H   H20       1.0  0.03912  0.07530  0.12786  1.0000
  H   H21       1.0  0.26800  0.96128  0.35640  1.0000
  H   H22       1.0  0.25905  0.03448  0.86641  1.0000
  H   H23       1.0  0.74616  0.15261  0.33908  1.0000
  H   H24       1.0  0.74524  0.86194  0.85092  1.0000
  H   H25       1.0  0.06479  0.72124  0.57343  1.0000
  H   H26       1.0  0.04582  0.34037  0.08324  1.0000
  H   H27       1.0  0.36066  0.51453  0.66948  1.0000
  H   H28       1.0  0.38214  0.42058  0.15522  1.0000
  H   H29       1.0  0.14626  0.47023  0.54401  1.0000
  H   H30       1.0  0.13617  0.58708  0.06112  1.0000
  H   H31       1.0  0.27888  0.76844  0.69881  1.0000
  H   H32       1.0  0.28963  0.17594  0.17882  1.0000
  H   H33       1.0  0.37658  0.73516  0.35621  1.0000
  H   H34       1.0  0.13293  0.40322  0.44958  1.0000
  H   H35       1.0  0.41785  0.45364  0.38092  1.0000
  H   H36       1.0  0.09448  0.68764  0.42795  1.0000
  H   H37       1.0  0.72032  0.65405  0.61626  1.0000
  H   H38       1.0  0.56186  0.13112  0.64929  1.0000
  H   H39       1.0  0.81996  0.42062  0.64319  1.0000
  H   H40       1.0  0.46059  0.36459  0.61876  1.0000
  H   H41       1.0  0.39027  0.98556  0.43457  1.0000
  H   H42       1.0  0.38240  0.03446  0.93967  1.0000
  H   H43       1.0  0.42152  0.98513  0.62960  1.0000
  H   H44       1.0  0.44060  0.99872  0.13277  1.0000
  H   H45       1.0  0.58655  0.86031  0.62049  1.0000
  H   H46       1.0  0.60496  0.12514  0.11750  1.0000
  H   H47       1.0  0.62025  0.77275  0.55913  1.0000
  H   H48       1.0  0.62476  0.22735  0.05655  1.0000
  H   H49       1.0  0.60841  0.82881  0.46609  1.0000
  H   H50       1.0  0.60351  0.19417  0.96965  1.0000
  H   H51       1.0  0.50322  0.78901  0.42630  1.0000
  H   H52       1.0  0.49677  0.22841  0.93027  1.0000
  H   H53       1.0  0.28843  0.16389  0.63763  1.0000
  H   H54       1.0  0.30261  0.83244  0.14298  1.0000
  H   H55       1.0  0.20206  0.18163  0.58471  1.0000
  H   H56       1.0  0.21458  0.81726  0.09114  1.0000
  H   H57       1.0  0.24060  0.28929  0.50461  1.0000
  H   H58       1.0  0.23303  0.73215  0.01186  1.0000
  H   H59       1.0  0.19810  0.12647  0.46488  1.0000
  H   H60       1.0  0.20921  0.88407  0.96357  1.0000
  C   C1        1.0  0.87865  0.61390  0.75307  1.0000
  C   C2        1.0  0.77670  0.62851  0.75718  1.0000
  C   C3        1.0  0.92627  0.72164  0.71919  1.0000
  C   C4        1.0  0.77333  0.86426  0.70058  1.0000
  C   C5        1.0  0.87504  0.84354  0.69328  1.0000
  C   C6        1.0  0.72468  0.75017  0.73120  1.0000
  C   C7        1.0  0.00951  0.38987  0.75841  1.0000
  C   C8        1.0  0.07384  0.29146  0.78807  1.0000
  C   C9        1.0  0.11131  0.13340  0.71025  1.0000
  C   C10       1.0  0.00231  0.36412  0.70368  1.0000
  C   C11       1.0  0.12510  0.16847  0.76427  1.0000
  C   C12       1.0  0.05188  0.23736  0.67957  1.0000
  C   C13       1.0  0.87841  0.61706  0.31590  1.0000
  C   C14       1.0  0.87922  0.38722  0.82220  1.0000
  C   C15       1.0  0.81482  0.72205  0.28813  1.0000
  C   C16       1.0  0.81413  0.28379  0.79589  1.0000
  C   C17       1.0  0.77409  0.86270  0.36898  1.0000
  C   C18       1.0  0.77424  0.14961  0.87829  1.0000
  C   C19       1.0  0.88859  0.63795  0.37073  1.0000
  C   C20       1.0  0.89105  0.36797  0.87707  1.0000
  C   C21       1.0  0.76334  0.84239  0.31379  1.0000
  C   C22       1.0  0.76222  0.16763  0.82302  1.0000
  C   C23       1.0  0.83620  0.75660  0.39698  1.0000
  C   C24       1.0  0.83853  0.25340  0.90480  1.0000
  C   C25       1.0  0.94188  0.49855  0.28427  1.0000
  C   C26       1.0  0.94169  0.50327  0.78923  1.0000
  C   C27       1.0  0.75600  0.12566  0.66868  1.0000
  C   C28       1.0  0.76260  0.87738  0.15860  1.0000
  C   C29       1.0  0.12219  0.91187  0.65401  1.0000
  C   C30       1.0  0.11167  0.09467  0.14621  1.0000
  C   C31       1.0  0.20982  0.89671  0.37714  1.0000
  C   C32       1.0  0.20034  0.10295  0.88579  1.0000
  C   C33       1.0  0.71397  0.12194  0.37749  1.0000
  C   C34       1.0  0.71265  0.89426  0.88907  1.0000
  C   C35       1.0  0.12925  0.67573  0.59469  1.0000
  C   C36       1.0  0.11960  0.35791  0.09910  1.0000
  C   C37       1.0  0.29548  0.56036  0.64918  1.0000
  C   C38       1.0  0.30825  0.40339  0.14023  1.0000
  C   C39       1.0  0.17405  0.53435  0.57835  1.0000
  C   C40       1.0  0.16998  0.49738  0.08683  1.0000
  C   C41       1.0  0.25853  0.47864  0.60489  1.0000
  C   C42       1.0  0.26568  0.51851  0.10645  1.0000
  C   C43       1.0  0.25088  0.70135  0.66510  1.0000
  C   C44       1.0  0.25772  0.26632  0.15265  1.0000
  C   C45       1.0  0.16817  0.76267  0.63758  1.0000
  C   C46       1.0  0.16316  0.23983  0.13164  1.0000
  C   C47       1.0  0.32382  0.66325  0.37759  1.0000
  C   C48       1.0  0.18766  0.47812  0.43128  1.0000
  C   C49       1.0  0.34714  0.50604  0.39055  1.0000
  C   C50       1.0  0.27983  0.41332  0.41866  1.0000
  C   C51       1.0  0.16542  0.63578  0.41838  1.0000
  C   C52       1.0  0.23331  0.73270  0.39194  1.0000
  C   C53       1.0  0.68484  0.54031  0.62268  1.0000
  C   C54       1.0  0.59541  0.24605  0.64180  1.0000
  C   C55       1.0  0.74105  0.40766  0.63820  1.0000
  C   C56       1.0  0.69799  0.25924  0.64861  1.0000
  C   C57       1.0  0.53892  0.37536  0.62607  1.0000
  C   C58       1.0  0.58281  0.52484  0.61693  1.0000
  C   C59       1.0  0.33593  0.08471  0.50661  1.0000
  C   C60       1.0  0.33939  0.92029  0.01179  1.0000
  C   C61       1.0  0.47896  0.88894  0.55739  1.0000
  C   C62       1.0  0.48618  0.10854  0.06029  1.0000
  C   C63       1.0  0.39727  0.98489  0.47750  1.0000
  C   C64       1.0  0.39488  0.02701  0.98221  1.0000
  C   C65       1.0  0.46834  0.88685  0.50183  1.0000
  C   C66       1.0  0.46730  0.12209  0.00551  1.0000
  C   C67       1.0  0.41489  0.98482  0.58657  1.0000
  C   C68       1.0  0.42739  0.00706  0.09024  1.0000
  C   C69       1.0  0.34350  0.08255  0.56227  1.0000
  C   C70       1.0  0.35357  0.91388  0.06705  1.0000
  C   C71       1.0  0.55875  0.79542  0.58569  1.0000
  C   C72       1.0  0.56973  0.19715  0.08608  1.0000
  C   C73       1.0  0.53231  0.78542  0.46712  1.0000
  C   C74       1.0  0.52586  0.23133  0.97105  1.0000
  C   C75       1.0  0.28043  0.19109  0.59518  1.0000
  C   C76       1.0  0.29309  0.80475  0.10072  1.0000
  C   C77       1.0  0.26307  0.19256  0.47835  1.0000
  C   C78       1.0  0.26684  0.81378  0.98380  1.0000
  N   N1        1.0  0.72267  0.00165  0.18042  1.0000
  N   N2        1.0  0.71675  0.98846  0.67882  1.0000
  N   N3        1.0  0.14972  0.00033  0.18163  1.0000
  N   N4        1.0  0.15778  0.99419  0.69286  1.0000
  N   N5        1.0  0.12445  0.95886  0.38644  1.0000
  N   N6        1.0  0.11316  0.04650  0.89257  1.0000
  N   N7        1.0  0.72416  0.98013  0.39762  1.0000
  N   N8        1.0  0.72337  0.03657  0.90829  1.0000
  O   O1        1.0  0.51872  0.64345  0.60271  1.0000
  O   O2        1.0  0.53163  0.34323  0.10963  1.0000
  O   O3        1.0  0.53122  0.62368  0.48701  1.0000
  O   O4        1.0  0.51869  0.39190  0.99174  1.0000
  O   O5        1.0  0.31310  0.35343  0.58437  1.0000
  O   O6        1.0  0.32547  0.64164  0.09063  1.0000
  O   O7        1.0  0.31032  0.26265  0.43259  1.0000
  O   O8        1.0  0.31962  0.72129  0.94440  1.0000
  C   C79       1.0  0.57554  0.70270  0.98973  1.0000
  C   C80       1.0  0.56192  0.54725  0.97121  1.0000
  C  Sn1       1.0  0.60532  0.49796  0.92418  1.0000
  C  Sn2       1.0  0.66341  0.60657  0.89525  1.0000
  C   C81       1.0  0.67664  0.76180  0.91413  1.0000
  C   C82       1.0  0.63285  0.80988  0.96123  1.0000
  H   H61       1.0  0.51462  0.75063  0.02618  1.0000
  O  Te1       1.0  0.59094  0.34224  0.90624  1.0000
  O  Te2       1.0  0.70766  0.56043  0.84814  1.0000
  H   H62       1.0  0.64345  0.93022  0.97557  1.0000
  Mg  Mg1       1.0  0.66641  0.33560  0.83987  1.0000
  C   C83       1.0  0.99704  0.66088  0.18506  1.0000
  C   C84       1.0  0.00900  0.60599  0.23708  1.0000
  C  Sn3       1.0  0.06943  0.68789  0.27272  1.0000
  C  Sn4       1.0  0.11868  0.82730  0.25585  1.0000
  C   C85       1.0  0.10617  0.88130  0.20374  1.0000
  C   C86       1.0  0.04555  0.79841  0.16840  1.0000
  H   H63       1.0  0.95010  0.59680  0.15772  1.0000
  O  Te3       1.0  0.08059  0.63138  0.32454  1.0000
  O  Te4       1.0  0.17948  0.91148  0.29066  1.0000
  H   H64       1.0  0.03626  0.84099  0.12814  1.0000
  Mg  Mg2       1.0  0.17133  0.78728  0.35727  1.0000
  C   C87       1.0  0.93250  0.22171  0.21610  1.0000
  C   C88       1.0  0.89477  0.36164  0.23822  1.0000
  C  Sn5       1.0  0.79354  0.38347  0.24250  1.0000
  C  Sn6       1.0  0.72908  0.26274  0.22427  1.0000
  C   C89       1.0  0.76756  0.12313  0.20223  1.0000
  C   C90       1.0  0.86897  0.10254  0.19812  1.0000
  H   H65       1.0  0.01097  0.20572  0.21294  1.0000
  O  Te5       1.0  0.75707  0.52403  0.26469  1.0000
  O  Te6       1.0  0.62760  0.28145  0.22809  1.0000
  H   H66       1.0  0.89308  0.99414  0.18102  1.0000
  Mg  Mg3       1.0  0.61323  0.49407  0.26129  1.0000
  C   C91       1.0  0.12370  0.32074  0.31293  1.0000
  C   C92       1.0  0.02597  0.37127  0.31530  1.0000
  C  Sn7       1.0  0.96019  0.29132  0.34773  1.0000
  C  Sn8       1.0  0.99309  0.15839  0.37832  1.0000
  C   C93       1.0  0.09103  0.10884  0.37571  1.0000
  C   C94       1.0  0.15622  0.18968  0.34311  1.0000
  H   H67       1.0  0.17416  0.38333  0.28773  1.0000
  O  Te7       1.0  0.86279  0.34334  0.34961  1.0000
  O  Te8       1.0  0.92892  0.07635  0.41109  1.0000
  H   H68       1.0  0.23190  0.15059  0.34131  1.0000
  Mg  Mg4       1.0  0.80320  0.19260  0.40021  1.0000
  C   C95       1.0  0.94370  0.75360  0.86921  1.0000
  C   C96       1.0  0.98268  0.64822  0.83209  1.0000
  C  Sn9       1.0  0.07984  0.66322  0.81617  1.0000
  C  Sn10      1.0  0.13890  0.78609  0.83789  1.0000
  C   C97       1.0  0.09923  0.89085  0.87503  1.0000
  C   C98       1.0  0.00191  0.87479  0.89067  1.0000
  H   H69       1.0  0.86841  0.74114  0.88133  1.0000
  O  Te9       1.0  0.11762  0.55695  0.77903  1.0000
  O  Te10      1.0  0.23625  0.80375  0.82269  1.0000
  H   H70       1.0  0.97176  0.95634  0.91943  1.0000
  Mg  Mg5       1.0  0.25441  0.62957  0.77084  1.0000
  C   C99       1.0  0.35310  0.44064  0.89406  1.0000
  C   C100      1.0  0.29826  0.55846  0.91954  1.0000
  C  Sn11      1.0  0.20419  0.52499  0.93746  1.0000
  C  Sn12      1.0  0.16450  0.37059  0.92970  1.0000
  C   C101      1.0  0.21997  0.25351  0.90420  1.0000
  C   C102      1.0  0.31401  0.28830  0.88640  1.0000
  H   H71       1.0  0.42588  0.46752  0.88031  1.0000
  O  Te11      1.0  0.15039  0.64411  0.96282  1.0000
  O  Te12      1.0  0.07068  0.33390  0.94723  1.0000
  H   H72       1.0  0.35648  0.19703  0.86671  1.0000
  Mg  Mg6       1.0  0.02588  0.53627  0.97961  1.0000
  C   C103      1.0  0.71844  0.48876  0.10854  1.0000
  C   C104      1.0  0.62071  0.45673  0.12021  1.0000
  C  Sn13      1.0  0.56128  0.57516  0.14218  1.0000
  C  Sn14      1.0  0.60063  0.72839  0.15261  1.0000
  C   C105      1.0  0.69848  0.75927  0.14077  1.0000
  C   C106      1.0  0.75730  0.63988  0.11880  1.0000
  H   H73       1.0  0.76395  0.39642  0.09152  1.0000
  O  Te13      1.0  0.46380  0.54113  0.15361  1.0000
  O  Te14      1.0  0.54286  0.84896  0.17454  1.0000
  H   H74       1.0  0.83296  0.66475  0.10974  1.0000
  Mg  Mg7       1.0  0.41431  0.74466  0.18321  1.0000
  C   C107      1.0  0.63595  0.51994  0.39759  1.0000
  C   C108      1.0  0.58441  0.52081  0.44499  1.0000
  C  Sn15      1.0  0.57603  0.38075  0.47475  1.0000
  C  Sn16      1.0  0.62016  0.23737  0.45662  1.0000
  C   C109      1.0  0.67162  0.23778  0.40916  1.0000
  C   C110      1.0  0.67953  0.37859  0.37968  1.0000
  H   H75       1.0  0.64212  0.62890  0.37479  1.0000
  O  Te15      1.0  0.52425  0.38371  0.52202  1.0000
  O  Te16      1.0  0.61295  0.09571  0.48560  1.0000
  H   H76       1.0  0.71949  0.37791  0.34300  1.0000
  Mg  Mg8       1.0  0.53475  0.16015  0.54752  1.0000
