data_image0
_chemical_formula_structural       H48C160S8N32F8SnCSn2CSnTe4Mg2SnCSn2CSnTe4Mg2SnCSn2CSnTe4Mg2SnCSn2CSnTe4Mg2SnCSn2CSnTe4Mg2SnCSn2CSnTe4Mg2SnCSn2CSnTe4Mg2SnCSn2CSnTe4Mg2SnCSn2CSnTe4Mg2SnCSn2CSnTe4Mg2SnCSn2CSnTe4Mg2SnCSn2CSnTe4Mg2SnCSn2CSnTe4Mg2SnCSn2CSnTe4Mg2SnCSn2CSnTe4Mg2SnCSn2CSnTe4Mg2SnCSn2CSnTe4Mg2SnCSn2CSnTe4Mg2SnCSn2CSnTe4Mg2SnCSn2CSnTe4Mg2SnCSn2CSnTe4Mg2SnCSn2CSnTe4Mg2SnCSn2CSnTe4Mg2SnCSn2CSnTe4Mg2SnCSn2CSnTe4Mg2SnCSn2CSnTe4Mg2SnCSn2CSnTe4Mg2SnCSn2CSnTe4Mg2SnCSn2CSnTe4Mg2SnCSn2CSnTe4Mg2SnCSn2CSnTe4Mg2SnCSn2CSnTe4Mg2
_chemical_formula_sum              "H48 C224 S8 N32 F8 Sn128 Te128 Mg64"
_cell_length_a       60.0673
_cell_length_b       45.2101
_cell_length_c       8.07985
_cell_angle_alpha    90.6834
_cell_angle_beta     91.929
_cell_angle_gamma    90.0586

_symmetry_space_group_name_H-M    'P1'
_space_group_IT_number       1

loop_
  _space_group_symop_operation_xyz
  'x, y, z'

loop_
  _atom_site_type_symbol
  _atom_site_label
  _atom_site_symmetry_multiplicity
  _atom_site_fract_x
  _atom_site_fract_y
  _atom_site_fract_z
  _atom_site_occupancy
  H   H1        1.0  0.40649  0.33683  0.31269  1.0000
  H   H2        1.0  0.59408  0.66686  0.31417  1.0000
  H   H3        1.0  0.59502  0.33703  0.18633  1.0000
  H   H4        1.0  0.40422  0.66209  0.19727  1.0000
  H   H5        1.0  0.44377  0.47338  0.23987  1.0000
  H   H6        1.0  0.55664  0.52832  0.25488  1.0000
  H   H7        1.0  0.55701  0.47485  0.25558  1.0000
  H   H8        1.0  0.44342  0.52680  0.25805  1.0000
  H   H9        1.0  0.90585  0.83963  0.32419  1.0000
  H   H10       1.0  0.09489  0.16410  0.31873  1.0000
  H   H11       1.0  0.09398  0.83750  0.17567  1.0000
  H   H12       1.0  0.90584  0.16355  0.17129  1.0000
  H   H13       1.0  0.94343  0.97374  0.23873  1.0000
  H   H14       1.0  0.05672  0.02737  0.24735  1.0000
  H   H15       1.0  0.05670  0.97385  0.25219  1.0000
  H   H16       1.0  0.94349  0.02718  0.24959  1.0000
  H   H17       1.0  0.74421  0.69884  0.24453  1.0000
  H   H18       1.0  0.25321  0.30455  0.23624  1.0000
  H   H19       1.0  0.25431  0.69910  0.26208  1.0000
  H   H20       1.0  0.74675  0.30567  0.27730  1.0000
  H   H21       1.0  0.00012  0.10240  0.25287  1.0000
  H   H22       1.0  0.00010  0.89872  0.23952  1.0000
  H   H23       1.0  0.49965  0.60271  0.26718  1.0000
  H   H24       1.0  0.50075  0.39907  0.23965  1.0000
  H   H25       1.0  0.40411  0.34261  0.83672  1.0000
  H   H26       1.0  0.59187  0.66961  0.74657  1.0000
  H   H27       1.0  0.59409  0.33534  0.67118  1.0000
  H   H28       1.0  0.40465  0.66041  0.69055  1.0000
  H   H29       1.0  0.44384  0.47339  0.74051  1.0000
  H   H30       1.0  0.55737  0.52586  0.74810  1.0000
  H   H31       1.0  0.55714  0.47240  0.75195  1.0000
  H   H32       1.0  0.44422  0.52676  0.75510  1.0000
  H   H33       1.0  0.90728  0.83768  0.82497  1.0000
  H   H34       1.0  0.09550  0.16230  0.82587  1.0000
  H   H35       1.0  0.09550  0.83874  0.66601  1.0000
  H   H36       1.0  0.90329  0.15811  0.66259  1.0000
  H   H37       1.0  0.94435  0.97269  0.74062  1.0000
  H   H38       1.0  0.05714  0.02780  0.74960  1.0000
  H   H39       1.0  0.05762  0.97435  0.75245  1.0000
  H   H40       1.0  0.94393  0.02611  0.74968  1.0000
  H   H41       1.0  0.74491  0.70225  0.76044  1.0000
  H   H42       1.0  0.25576  0.29997  0.75654  1.0000
  H   H43       1.0  0.25255  0.69602  0.73508  1.0000
  H   H44       1.0  0.74450  0.30040  0.76140  1.0000
  H   H45       1.0  0.00003  0.10206  0.75511  1.0000
  H   H46       1.0  0.00127  0.89843  0.74517  1.0000
  H   H47       1.0  0.50130  0.60142  0.75556  1.0000
  H   H48       1.0  0.49996  0.39775  0.73508  1.0000
  C   C1        1.0  0.27006  0.26804  0.12019  1.0000
  C   C2        1.0  0.72807  0.73547  0.12034  1.0000
  C   C3        1.0  0.73050  0.26862  0.38836  1.0000
  C   C4        1.0  0.27107  0.73502  0.39322  1.0000
  C   C5        1.0  0.26627  0.23936  0.04646  1.0000
  C   C6        1.0  0.73250  0.76368  0.04879  1.0000
  C   C7        1.0  0.73466  0.23967  0.45344  1.0000
  C   C8        1.0  0.26722  0.76323  0.47032  1.0000
  C   C9        1.0  0.24423  0.22632  0.03957  1.0000
  C   C10       1.0  0.75484  0.77575  0.05200  1.0000
  C   C11       1.0  0.75671  0.22681  0.45156  1.0000
  C   C12       1.0  0.24508  0.77589  0.46991  1.0000
  C   C13       1.0  0.29146  0.28071  0.13102  1.0000
  C   C14       1.0  0.70633  0.72387  0.12318  1.0000
  C   C15       1.0  0.70899  0.28092  0.38455  1.0000
  C   C16       1.0  0.29248  0.72258  0.38618  1.0000
  C   C17       1.0  0.31004  0.29179  0.14252  1.0000
  C   C18       1.0  0.68755  0.71360  0.13029  1.0000
  C   C19       1.0  0.69026  0.29151  0.37788  1.0000
  C   C20       1.0  0.31071  0.71092  0.37348  1.0000
  C   C21       1.0  0.39524  0.34653  0.21800  1.0000
  C   C22       1.0  0.60389  0.65742  0.21386  1.0000
  C   C23       1.0  0.60543  0.34611  0.28943  1.0000
  C   C24       1.0  0.39419  0.65354  0.29753  1.0000
  C   C25       1.0  0.48013  0.43744  0.22355  1.0000
  C   C26       1.0  0.52013  0.56447  0.24248  1.0000
  C   C27       1.0  0.52101  0.43782  0.26474  1.0000
  C   C28       1.0  0.47950  0.56392  0.28173  1.0000
  C   C29       1.0  0.02075  0.03237  0.24154  1.0000
  C   C30       1.0  0.97935  0.96872  0.23575  1.0000
  C   C31       1.0  0.97944  0.03234  0.25705  1.0000
  C   C32       1.0  0.02077  0.96884  0.25377  1.0000
  C   C33       1.0  0.45948  0.48527  0.24401  1.0000
  C   C34       1.0  0.54091  0.51650  0.25350  1.0000
  C   C35       1.0  0.54114  0.48628  0.25646  1.0000
  C   C36       1.0  0.45931  0.51545  0.25649  1.0000
  C   C37       1.0  0.77333  0.76004  0.12645  1.0000
  C   C38       1.0  0.22548  0.24143  0.10706  1.0000
  C   C39       1.0  0.22628  0.76079  0.39309  1.0000
  C   C40       1.0  0.77513  0.24240  0.38410  1.0000
  C   C41       1.0  0.76798  0.73233  0.18897  1.0000
  C   C42       1.0  0.23019  0.26967  0.17162  1.0000
  C   C43       1.0  0.23113  0.73311  0.32429  1.0000
  C   C44       1.0  0.77013  0.27088  0.32884  1.0000
  C   C45       1.0  0.74643  0.72026  0.18772  1.0000
  C   C46       1.0  0.25141  0.28273  0.17947  1.0000
  C   C47       1.0  0.25243  0.72046  0.32318  1.0000
  C   C48       1.0  0.74886  0.28373  0.32894  1.0000
  C   C49       1.0  0.79475  0.77220  0.13712  1.0000
  C   C50       1.0  0.20439  0.22841  0.11322  1.0000
  C   C51       1.0  0.20501  0.77336  0.38378  1.0000
  C   C52       1.0  0.79617  0.22950  0.37096  1.0000
  C   C53       1.0  0.81295  0.78436  0.14871  1.0000
  C   C54       1.0  0.18636  0.21622  0.12686  1.0000
  C   C55       1.0  0.18671  0.78510  0.37051  1.0000
  C   C56       1.0  0.81405  0.21710  0.35353  1.0000
  C   C57       1.0  0.89511  0.84647  0.21874  1.0000
  C   C58       1.0  0.10460  0.15576  0.21519  1.0000
  C   C59       1.0  0.10442  0.84558  0.28117  1.0000
  C   C60       1.0  0.89538  0.15523  0.26960  1.0000
  C   C61       1.0  0.97956  0.93719  0.22261  1.0000
  C   C62       1.0  0.02044  0.06389  0.23201  1.0000
  C   C63       1.0  0.02049  0.93733  0.26197  1.0000
  C   C64       1.0  0.97977  0.06389  0.26965  1.0000
  C   C65       1.0  0.52066  0.53294  0.25003  1.0000
  C   C66       1.0  0.47971  0.46891  0.23836  1.0000
  C   C67       1.0  0.47935  0.53241  0.26561  1.0000
  C   C68       1.0  0.52111  0.46936  0.25802  1.0000
  C   C69       1.0  0.95925  0.98537  0.24087  1.0000
  C   C70       1.0  0.04091  0.01572  0.24629  1.0000
  C   C71       1.0  0.04092  0.98550  0.25133  1.0000
  C   C72       1.0  0.95930  0.01560  0.24987  1.0000
  C   C73       1.0  0.00012  0.07837  0.25196  1.0000
  C   C74       1.0  0.00004  0.92275  0.24094  1.0000
  C   C75       1.0  0.00008  0.01650  0.24842  1.0000
  C   C76       1.0  0.00006  0.98465  0.24606  1.0000
  C   C77       1.0  0.49975  0.57868  0.26429  1.0000
  C   C78       1.0  0.50064  0.42310  0.24202  1.0000
  C   C79       1.0  0.50010  0.51683  0.25556  1.0000
  C   C80       1.0  0.50031  0.48500  0.25061  1.0000
  C   C81       1.0  0.27112  0.26427  0.62216  1.0000
  C   C82       1.0  0.72835  0.73684  0.62174  1.0000
  C   C83       1.0  0.72901  0.26434  0.88729  1.0000
  C   C84       1.0  0.27049  0.73012  0.87401  1.0000
  C   C85       1.0  0.26633  0.23657  0.54007  1.0000
  C   C86       1.0  0.73225  0.76470  0.54426  1.0000
  C   C87       1.0  0.73374  0.23635  0.96239  1.0000
  C   C88       1.0  0.26755  0.75821  0.95503  1.0000
  C   C89       1.0  0.24395  0.22453  0.53410  1.0000
  C   C90       1.0  0.75435  0.77764  0.54672  1.0000
  C   C91       1.0  0.75602  0.22410  0.96363  1.0000
  C   C92       1.0  0.24588  0.77216  0.95777  1.0000
  C   C93       1.0  0.29282  0.27606  0.63387  1.0000
  C   C94       1.0  0.70704  0.72395  0.62285  1.0000
  C   C95       1.0  0.70727  0.27599  0.87854  1.0000
  C   C96       1.0  0.29167  0.71684  0.87020  1.0000
  C   C97       1.0  0.31134  0.28719  0.64940  1.0000
  C   C98       1.0  0.68876  0.71211  0.62876  1.0000
  C   C99       1.0  0.68847  0.28622  0.86462  1.0000
  C   C100      1.0  0.31035  0.70611  0.86748  1.0000
  C   C101      1.0  0.39413  0.34799  0.72452  1.0000
  C   C102      1.0  0.60443  0.65612  0.68467  1.0000
  C   C103      1.0  0.60448  0.34337  0.77703  1.0000
  C   C104      1.0  0.39525  0.65241  0.79557  1.0000
  C   C105      1.0  0.47973  0.43650  0.72083  1.0000
  C   C106      1.0  0.52127  0.56266  0.73156  1.0000
  C   C107      1.0  0.52070  0.43605  0.75976  1.0000
  C   C108      1.0  0.48074  0.56308  0.77457  1.0000
  C   C109      1.0  0.02116  0.03227  0.74328  1.0000
  C   C110      1.0  0.98028  0.96820  0.73817  1.0000
  C   C111      1.0  0.97985  0.03173  0.75790  1.0000
  C   C112      1.0  0.02172  0.96868  0.75620  1.0000
  C   C113      1.0  0.45973  0.48485  0.74277  1.0000
  C   C114      1.0  0.54151  0.51434  0.74639  1.0000
  C   C115      1.0  0.54138  0.48412  0.75099  1.0000
  C   C116      1.0  0.45995  0.51504  0.75330  1.0000
  C   C117      1.0  0.77300  0.76330  0.62782  1.0000
  C   C118      1.0  0.22588  0.23973  0.61044  1.0000
  C   C119      1.0  0.22665  0.75857  0.87848  1.0000
  C   C120      1.0  0.77411  0.23930  0.88870  1.0000
  C   C121      1.0  0.76801  0.73629  0.70056  1.0000
  C   C122      1.0  0.23162  0.26692  0.68424  1.0000
  C   C123      1.0  0.23064  0.73120  0.80303  1.0000
  C   C124      1.0  0.76844  0.26681  0.82206  1.0000
  C   C125      1.0  0.74683  0.72318  0.69769  1.0000
  C   C126      1.0  0.25316  0.27900  0.69145  1.0000
  C   C127      1.0  0.25145  0.71713  0.79999  1.0000
  C   C128      1.0  0.74700  0.27916  0.82066  1.0000
  C   C129      1.0  0.79431  0.77582  0.63723  1.0000
  C   C130      1.0  0.20451  0.22758  0.61637  1.0000
  C   C131      1.0  0.20564  0.77193  0.87328  1.0000
  C   C132      1.0  0.79530  0.22669  0.87796  1.0000
  C   C133      1.0  0.81282  0.78710  0.64905  1.0000
  C   C134      1.0  0.18628  0.21581  0.62776  1.0000
  C   C135      1.0  0.18736  0.78379  0.86386  1.0000
  C   C136      1.0  0.81330  0.21441  0.86359  1.0000
  C   C137      1.0  0.89647  0.84539  0.72186  1.0000
  C   C138      1.0  0.10475  0.15503  0.71753  1.0000
  C   C139      1.0  0.10543  0.84524  0.77743  1.0000
  C   C140      1.0  0.89416  0.15182  0.77258  1.0000
  C   C141      1.0  0.98070  0.93670  0.72650  1.0000
  C   C142      1.0  0.02058  0.06377  0.73286  1.0000
  C   C143      1.0  0.02164  0.93715  0.76531  1.0000
  C   C144      1.0  0.97995  0.06327  0.77120  1.0000
  C   C145      1.0  0.52144  0.53115  0.74147  1.0000
  C   C146      1.0  0.47972  0.46799  0.73575  1.0000
  C   C147      1.0  0.48020  0.53156  0.75990  1.0000
  C   C148      1.0  0.52116  0.46759  0.75278  1.0000
  C   C149      1.0  0.96005  0.98456  0.74222  1.0000
  C   C150      1.0  0.04144  0.01589  0.74839  1.0000
  C   C151      1.0  0.04171  0.98567  0.75311  1.0000
  C   C152      1.0  0.95983  0.01476  0.75022  1.0000
  C   C153      1.0  0.00018  0.07802  0.75340  1.0000
  C   C154      1.0  0.00122  0.92245  0.74552  1.0000
  C   C155      1.0  0.00063  0.01614  0.75011  1.0000
  C   C156      1.0  0.00089  0.98430  0.74829  1.0000
  C   C157      1.0  0.50111  0.57739  0.75411  1.0000
  C   C158      1.0  0.50012  0.42178  0.73797  1.0000
  C   C159      1.0  0.50071  0.51548  0.74904  1.0000
  C   C160      1.0  0.50054  0.48364  0.74578  1.0000
  S   S1        1.0  0.27169  0.80375  0.10470  1.0000
  S   S2        1.0  0.73265  0.19000  0.09949  1.0000
  S   S3        1.0  0.72984  0.81035  0.39984  1.0000
  S   S4        1.0  0.26727  0.19055  0.39322  1.0000
  S   S5        1.0  0.26974  0.80975  0.61189  1.0000
  S   S6        1.0  0.73282  0.19225  0.57828  1.0000
  S   S7        1.0  0.73092  0.81024  0.91354  1.0000
  S   S8        1.0  0.26886  0.19248  0.91038  1.0000
  N   N1        1.0  0.40035  0.36928  0.13102  1.0000
  N   N2        1.0  0.59790  0.63388  0.13104  1.0000
  N   N3        1.0  0.59985  0.36894  0.37704  1.0000
  N   N4        1.0  0.40026  0.63116  0.38679  1.0000
  N   N5        1.0  0.90035  0.86777  0.12138  1.0000
  N   N6        1.0  0.09849  0.13313  0.12473  1.0000
  N   N7        1.0  0.09901  0.86789  0.37353  1.0000
  N   N8        1.0  0.90089  0.13266  0.35940  1.0000
  N   N9        1.0  0.24596  0.79835  0.03943  1.0000
  N   N10       1.0  0.75763  0.19766  0.03853  1.0000
  N   N11       1.0  0.75522  0.80377  0.46847  1.0000
  N   N12       1.0  0.24226  0.19829  0.45351  1.0000
  N   N13       1.0  0.28375  0.77402  0.03516  1.0000
  N   N14       1.0  0.71882  0.21902  0.03648  1.0000
  N   N15       1.0  0.71674  0.78120  0.46359  1.0000
  N   N16       1.0  0.28124  0.21926  0.46364  1.0000
  N   N17       1.0  0.40001  0.36800  0.62123  1.0000
  N   N18       1.0  0.60066  0.62937  0.63166  1.0000
  N   N19       1.0  0.59898  0.36569  0.86883  1.0000
  N   N20       1.0  0.40200  0.63075  0.88780  1.0000
  N   N21       1.0  0.90172  0.86708  0.62728  1.0000
  N   N22       1.0  0.09831  0.13316  0.62246  1.0000
  N   N23       1.0  0.09977  0.86668  0.87505  1.0000
  N   N24       1.0  0.90077  0.13092  0.87092  1.0000
  N   N25       1.0  0.24428  0.80251  0.54652  1.0000
  N   N26       1.0  0.75791  0.19969  0.51892  1.0000
  N   N27       1.0  0.75620  0.80234  0.97907  1.0000
  N   N28       1.0  0.24346  0.19945  0.96526  1.0000
  N   N29       1.0  0.28282  0.78035  0.54823  1.0000
  N   N30       1.0  0.71944  0.22211  0.52261  1.0000
  N   N31       1.0  0.71726  0.78126  0.97293  1.0000
  N   N32       1.0  0.28187  0.22225  0.97659  1.0000
  F   F1        1.0  0.78460  0.71579  0.25846  1.0000
  F   F2        1.0  0.21320  0.28568  0.23369  1.0000
  F   F3        1.0  0.21428  0.71728  0.24996  1.0000
  F   F4        1.0  0.78681  0.28721  0.26648  1.0000
  F   F5        1.0  0.78461  0.72170  0.78332  1.0000
  F   F6        1.0  0.21541  0.28273  0.75824  1.0000
  F   F7        1.0  0.21318  0.71721  0.72491  1.0000
  F   F8        1.0  0.78459  0.28273  0.74981  1.0000
  C  Sn1       1.0  0.13002  0.20812  0.21818  1.0000
  C   C161      1.0  0.12408  0.17967  0.16335  1.0000
  C  Sn2       1.0  0.14029  0.16010  0.10805  1.0000
  C  Sn3       1.0  0.16290  0.16915  0.10762  1.0000
  C   C162      1.0  0.16882  0.19759  0.16245  1.0000
  C  Sn4       1.0  0.15263  0.21717  0.21776  1.0000
  O  Te1       1.0  0.11354  0.22731  0.27295  1.0000
  O  Te2       1.0  0.13394  0.13177  0.05377  1.0000
  O  Te3       1.0  0.17938  0.14993  0.05279  1.0000
  O  Te4       1.0  0.15896  0.24548  0.27204  1.0000
  Mg  Mg1       1.0  0.16701  0.11576  0.99088  1.0000
  Mg  Mg2       1.0  0.13045  0.26364  0.33503  1.0000
  C  Sn5       1.0  0.84919  0.84472  0.13167  1.0000
  C   C163      1.0  0.86875  0.83596  0.21583  1.0000
  C  Sn6       1.0  0.87153  0.80667  0.26543  1.0000
  C  Sn7       1.0  0.85441  0.78568  0.23010  1.0000
  C   C164      1.0  0.83486  0.79443  0.14597  1.0000
  C  Sn8       1.0  0.83207  0.82373  0.09634  1.0000
  O  Te5       1.0  0.84677  0.87412  0.08325  1.0000
  O  Te6       1.0  0.89123  0.79844  0.34945  1.0000
  O  Te7       1.0  0.85684  0.75626  0.27861  1.0000
  O  Te8       1.0  0.81238  0.83195  0.01234  1.0000
  Mg  Mg3       1.0  0.88670  0.75579  0.38983  1.0000
  Mg  Mg4       1.0  0.82142  0.87674  0.97183  1.0000
  C  Sn9       1.0  0.84969  0.15597  0.34391  1.0000
  C   C165      1.0  0.86891  0.16584  0.26875  1.0000
  C  Sn10      1.0  0.87172  0.19583  0.23530  1.0000
  C  Sn11      1.0  0.85498  0.21639  0.27796  1.0000
  C   C166      1.0  0.83578  0.20652  0.35310  1.0000
  C  Sn12      1.0  0.83295  0.17653  0.38657  1.0000
  O  Te9       1.0  0.84723  0.12588  0.37620  1.0000
  O  Te10      1.0  0.89107  0.20516  0.16002  1.0000
  O  Te11      1.0  0.85745  0.24649  0.24560  1.0000
  O  Te12      1.0  0.81361  0.16719  0.46183  1.0000
  Mg  Mg5       1.0  0.88676  0.24842  0.14127  1.0000
  Mg  Mg6       1.0  0.81791  0.12395  0.48071  1.0000
  C  Sn13      1.0  0.14591  0.79222  0.20525  1.0000
  C   C167      1.0  0.16458  0.80081  0.30200  1.0000
  C  Sn14      1.0  0.16304  0.82367  0.41887  1.0000
  C  Sn15      1.0  0.14241  0.83824  0.43957  1.0000
  C   C168      1.0  0.12375  0.82965  0.34288  1.0000
  C  Sn16      1.0  0.12527  0.80679  0.22595  1.0000
  O  Te13      1.0  0.14783  0.76931  0.08918  1.0000
  O  Te14      1.0  0.18195  0.83188  0.51411  1.0000
  O  Te15      1.0  0.14050  0.86117  0.55576  1.0000
  O  Te16      1.0  0.10638  0.79859  0.13077  1.0000
  Mg  Mg7       1.0  0.17094  0.86434  0.65605  1.0000
  Mg  Mg8       1.0  0.12189  0.76825  0.98887  1.0000
  C  Sn17      1.0  0.06503  0.07096  0.12691  1.0000
  C   C169      1.0  0.04623  0.07761  0.21758  1.0000
  C  Sn18      1.0  0.04221  0.10661  0.27004  1.0000
  C  Sn19      1.0  0.05729  0.12945  0.23097  1.0000
  C   C170      1.0  0.07607  0.12280  0.14033  1.0000
  C  Sn20      1.0  0.08011  0.09380  0.08784  1.0000
  O  Te17      1.0  0.06871  0.04181  0.07573  1.0000
  O  Te18      1.0  0.02331  0.11271  0.36059  1.0000
  O  Te19      1.0  0.05360  0.15862  0.28224  1.0000
  O  Te20      1.0  0.10352  0.08984  0.99732  1.0000
  Mg  Mg9       1.0  0.02552  0.15587  0.40253  1.0000
  Mg  Mg10      1.0  0.10133  0.04669  0.95525  1.0000
  C  Sn21      1.0  0.93405  0.92972  0.11809  1.0000
  C   C171      1.0  0.95377  0.92333  0.20721  1.0000
  C  Sn22      1.0  0.95823  0.89452  0.25923  1.0000
  C  Sn23      1.0  0.94266  0.87161  0.22130  1.0000
  C   C172      1.0  0.92296  0.87801  0.13221  1.0000
  C  Sn24      1.0  0.91849  0.90682  0.08016  1.0000
  O  Te21      1.0  0.92994  0.95868  0.06732  1.0000
  O  Te22      1.0  0.97805  0.88867  0.34822  1.0000
  O  Te23      1.0  0.94679  0.84264  0.27216  1.0000
  O  Te24      1.0  0.90321  0.91481  0.99121  1.0000
  Mg  Mg11      1.0  0.97613  0.84570  0.39017  1.0000
  Mg  Mg12      1.0  0.90511  0.95776  0.94912  1.0000
  C  Sn25      1.0  0.94031  0.12148  0.19270  1.0000
  C   C173      1.0  0.92222  0.11642  0.29295  1.0000
  C  Sn26      1.0  0.92339  0.09465  0.41418  1.0000
  C  Sn27      1.0  0.94306  0.07760  0.43575  1.0000
  C   C174      1.0  0.96114  0.08267  0.33556  1.0000
  C  Sn28      1.0  0.95998  0.10443  0.21427  1.0000
  O  Te25      1.0  0.93878  0.14336  0.07229  1.0000
  O  Te26      1.0  0.90508  0.08999  0.51287  1.0000
  O  Te27      1.0  0.94458  0.05571  0.55628  1.0000
  O  Te28      1.0  0.97828  0.10910  0.11564  1.0000
  Mg  Mg13      1.0  0.91523  0.05765  0.66015  1.0000
  Mg  Mg14      1.0  0.97268  0.14358  0.96839  1.0000
  C  Sn29      1.0  0.05966  0.87974  0.18952  1.0000
  C   C175      1.0  0.07787  0.88460  0.29877  1.0000
  C  Sn30      1.0  0.07690  0.90630  0.42283  1.0000
  C  Sn31      1.0  0.05732  0.92349  0.43810  1.0000
  C   C176      1.0  0.03913  0.91863  0.32892  1.0000
  C  Sn32      1.0  0.04008  0.89693  0.20479  1.0000
  O  Te29      1.0  0.06100  0.85793  0.06643  1.0000
  O  Te30      1.0  0.09531  0.91076  0.53055  1.0000
  O  Te31      1.0  0.05599  0.94532  0.56133  1.0000
  O  Te32      1.0  0.02168  0.89247  0.09714  1.0000
  Mg  Mg15      1.0  0.08542  0.94309  0.67822  1.0000
  Mg  Mg16      1.0  0.03607  0.86228  0.94949  1.0000
  C  Sn33      1.0  0.65457  0.67374  0.01765  1.0000
  C   C177      1.0  0.66261  0.69975  0.09349  1.0000
  C  Sn34      1.0  0.65213  0.71171  0.23076  1.0000
  C  Sn35      1.0  0.63324  0.69735  0.29361  1.0000
  C   C178      1.0  0.62522  0.67136  0.21781  1.0000
  C  Sn36      1.0  0.63568  0.65939  0.08050  1.0000
  O  Te33      1.0  0.66984  0.66433  0.88057  1.0000
  O  Te34      1.0  0.66047  0.73774  0.30446  1.0000
  O  Te35      1.0  0.62251  0.70893  0.43081  1.0000
  O  Te36      1.0  0.62736  0.63337  0.00684  1.0000
  Mg  Mg17      1.0  0.64011  0.74486  0.48844  1.0000
  Mg  Mg18      1.0  0.65224  0.62836  0.82291  1.0000
  C  Sn37      1.0  0.36802  0.29582  0.21374  1.0000
  C   C179      1.0  0.37410  0.32439  0.16886  1.0000
  C  Sn38      1.0  0.35781  0.34533  0.12787  1.0000
  C  Sn39      1.0  0.33495  0.33754  0.13190  1.0000
  C   C180      1.0  0.32888  0.30898  0.17679  1.0000
  C  Sn40      1.0  0.34517  0.28803  0.21778  1.0000
  O  Te37      1.0  0.38460  0.27525  0.25426  1.0000
  O  Te38      1.0  0.36429  0.37375  0.08333  1.0000
  O  Te39      1.0  0.31838  0.35814  0.09134  1.0000
  O  Te40      1.0  0.33869  0.25963  0.26232  1.0000
  Mg  Mg19      1.0  0.33555  0.39401  0.03869  1.0000
  Mg  Mg20      1.0  0.36742  0.23935  0.30707  1.0000
  C  Sn41      1.0  0.34869  0.65211  0.37274  1.0000
  C   C181      1.0  0.36767  0.66308  0.29898  1.0000
  C  Sn42      1.0  0.36947  0.69316  0.26421  1.0000
  C  Sn43      1.0  0.35194  0.71270  0.30408  1.0000
  C   C182      1.0  0.33297  0.70174  0.37783  1.0000
  C  Sn44      1.0  0.33115  0.67165  0.41262  1.0000
  O  Te41      1.0  0.34724  0.62196  0.40640  1.0000
  O  Te42      1.0  0.38861  0.70360  0.19037  1.0000
  O  Te43      1.0  0.35339  0.74287  0.27035  1.0000
  O  Te44      1.0  0.31203  0.66121  0.48644  1.0000
  Mg  Mg21      1.0  0.38279  0.74650  0.16886  1.0000
  Mg  Mg22      1.0  0.31783  0.61832  0.50808  1.0000
  C  Sn45      1.0  0.64898  0.29530  0.21752  1.0000
  C   C183      1.0  0.66723  0.30531  0.31458  1.0000
  C  Sn46      1.0  0.66467  0.32803  0.43103  1.0000
  C  Sn47      1.0  0.64343  0.34101  0.45098  1.0000
  C   C184      1.0  0.62520  0.33101  0.35398  1.0000
  C  Sn48      1.0  0.62774  0.30829  0.23747  1.0000
  O  Te45      1.0  0.65193  0.27256  0.10187  1.0000
  O  Te46      1.0  0.68315  0.33766  0.52659  1.0000
  O  Te47      1.0  0.64049  0.36378  0.56675  1.0000
  O  Te48      1.0  0.60927  0.29865  0.14197  1.0000
  Mg  Mg23      1.0  0.67072  0.36926  0.66772  1.0000
  Mg  Mg24      1.0  0.62168  0.26705  0.00087  1.0000
  C  Sn49      1.0  0.55972  0.62260  0.31381  1.0000
  C   C185      1.0  0.57733  0.61734  0.20862  1.0000
  C  Sn50      1.0  0.57564  0.59519  0.08681  1.0000
  C  Sn51      1.0  0.55594  0.57795  0.06970  1.0000
  C   C186      1.0  0.53835  0.58321  0.17482  1.0000
  C  Sn52      1.0  0.54003  0.60535  0.29670  1.0000
  O  Te49      1.0  0.56177  0.64486  0.43471  1.0000
  O  Te50      1.0  0.59799  0.59248  0.98315  1.0000
  O  Te51      1.0  0.55843  0.55781  0.94867  1.0000
  O  Te52      1.0  0.52222  0.61021  0.40030  1.0000
  Mg  Mg25      1.0  0.58724  0.55962  0.83721  1.0000
  Mg  Mg26      1.0  0.53295  0.64307  0.54621  1.0000
  C  Sn53      1.0  0.42911  0.41124  0.02684  1.0000
  C   C187      1.0  0.42402  0.38490  0.10620  1.0000
  C  Sn54      1.0  0.43662  0.37590  0.24503  1.0000
  C  Sn55      1.0  0.45468  0.39360  0.30590  1.0000
  C   C188      1.0  0.45976  0.41992  0.22658  1.0000
  C  Sn56      1.0  0.44717  0.42894  0.08771  1.0000
  O  Te53      1.0  0.42082  0.42195  0.88824  1.0000
  O  Te54      1.0  0.43122  0.34948  0.32224  1.0000
  O  Te55      1.0  0.46751  0.38500  0.44461  1.0000
  O  Te56      1.0  0.45257  0.45535  0.01054  1.0000
  Mg  Mg27      1.0  0.45361  0.34721  0.50712  1.0000
  Mg  Mg28      1.0  0.43471  0.45978  0.82571  1.0000
  C  Sn57      1.0  0.42946  0.58778  0.47745  1.0000
  C   C189      1.0  0.42378  0.61483  0.40569  1.0000
  C  Sn58      1.0  0.43548  0.62533  0.27187  1.0000
  C  Sn59      1.0  0.45322  0.60844  0.20838  1.0000
  C   C190      1.0  0.45889  0.58140  0.28010  1.0000
  C  Sn60      1.0  0.44720  0.57088  0.41395  1.0000
  O  Te57      1.0  0.41753  0.57771  0.61113  1.0000
  O  Te58      1.0  0.42950  0.65245  0.20223  1.0000
  O  Te59      1.0  0.46515  0.61853  0.07459  1.0000
  O  Te60      1.0  0.45316  0.54378  0.48356  1.0000
  Mg  Mg29      1.0  0.45073  0.65678  0.02187  1.0000
  Mg  Mg30      1.0  0.43194  0.53942  0.66386  1.0000
  C  Sn61      1.0  0.56625  0.43087  0.37541  1.0000
  C   C191      1.0  0.54687  0.42429  0.28153  1.0000
  C  Sn62      1.0  0.54262  0.39540  0.22593  1.0000
  C  Sn63      1.0  0.55805  0.37260  0.26506  1.0000
  C   C192      1.0  0.57741  0.37918  0.35890  1.0000
  C  Sn64      1.0  0.58168  0.40807  0.41454  1.0000
  O  Te61      1.0  0.57016  0.45992  0.42970  1.0000
  O  Te62      1.0  0.52313  0.38936  0.13222  1.0000
  O  Te63      1.0  0.55412  0.34354  0.21068  1.0000
  O  Te64      1.0  0.60114  0.41411  0.50822  1.0000
  Mg  Mg31      1.0  0.52523  0.34634  0.08674  1.0000
  Mg  Mg32      1.0  0.59906  0.45712  0.55384  1.0000
  C  Sn65      1.0  0.14717  0.20825  0.79487  1.0000
  C   C193      1.0  0.16479  0.19988  0.69599  1.0000
  C  Sn66      1.0  0.16197  0.17731  0.57756  1.0000
  C  Sn67      1.0  0.14109  0.16281  0.55747  1.0000
  C   C194      1.0  0.12348  0.17118  0.65629  1.0000
  C  Sn68      1.0  0.12629  0.19375  0.77478  1.0000
  O  Te65      1.0  0.15037  0.23088  0.91248  1.0000
  O  Te66      1.0  0.17984  0.16933  0.48019  1.0000
  O  Te67      1.0  0.13790  0.14017  0.43974  1.0000
  O  Te68      1.0  0.10843  0.20173  0.87208  1.0000
  Mg  Mg33      1.0  0.16727  0.13722  0.33676  1.0000
  Mg  Mg34      1.0  0.11645  0.23171  0.01548  1.0000
  C  Sn69      1.0  0.84298  0.82904  0.54459  1.0000
  C   C195      1.0  0.83649  0.80252  0.61598  1.0000
  C  Sn70      1.0  0.84917  0.79036  0.74627  1.0000
  C  Sn71      1.0  0.86874  0.80502  0.80655  1.0000
  C   C196      1.0  0.87523  0.83153  0.73519  1.0000
  C  Sn72      1.0  0.86256  0.84370  0.60486  1.0000
  O  Te69      1.0  0.83005  0.84079  0.41446  1.0000
  O  Te70      1.0  0.84234  0.76383  0.81561  1.0000
  O  Te71      1.0  0.88168  0.79325  0.93678  1.0000
  O  Te72      1.0  0.86938  0.87022  0.53556  1.0000
  Mg  Mg35      1.0  0.86550  0.75661  0.99054  1.0000
  Mg  Mg36      1.0  0.84622  0.87746  0.36070  1.0000
  C  Sn73      1.0  0.84367  0.17116  0.96326  1.0000
  C   C197      1.0  0.83690  0.19774  0.89089  1.0000
  C  Sn74      1.0  0.84798  0.20881  0.75549  1.0000
  C  Sn75      1.0  0.86619  0.19298  0.69100  1.0000
  C   C198      1.0  0.87294  0.16641  0.76333  1.0000
  C  Sn76      1.0  0.86188  0.15532  0.89876  1.0000
  O  Te73      1.0  0.82783  0.15837  0.09852  1.0000
  O  Te74      1.0  0.84091  0.23544  0.68527  1.0000
  O  Te75      1.0  0.87750  0.20365  0.55562  1.0000
  O  Te76      1.0  0.86893  0.12871  0.96895  1.0000
  Mg  Mg37      1.0  0.86164  0.24089  0.50266  1.0000
  Mg  Mg38      1.0  0.84368  0.12109  0.15149  1.0000
  C  Sn77      1.0  0.14687  0.79201  0.69775  1.0000
  C   C199      1.0  0.16527  0.79985  0.79942  1.0000
  C  Sn78      1.0  0.16339  0.82178  0.92137  1.0000
  C  Sn79      1.0  0.14268  0.83617  0.94223  1.0000
  C   C200      1.0  0.12430  0.82832  0.84063  1.0000
  C  Sn80      1.0  0.12616  0.80639  0.71861  1.0000
  O  Te77      1.0  0.14913  0.77002  0.57664  1.0000
  O  Te78      1.0  0.17749  0.82711  0.02147  1.0000
  O  Te79      1.0  0.13590  0.85603  0.06347  1.0000
  O  Te80      1.0  0.10755  0.79892  0.61858  1.0000
  Mg  Mg39      1.0  0.16606  0.85844  0.16925  1.0000
  Mg  Mg40      1.0  0.11895  0.76759  0.47082  1.0000
  C  Sn81      1.0  0.05985  0.12236  0.79889  1.0000
  C   C201      1.0  0.07757  0.11689  0.69510  1.0000
  C  Sn82      1.0  0.07611  0.09426  0.57599  1.0000
  C  Sn83      1.0  0.05654  0.07674  0.56022  1.0000
  C   C202      1.0  0.03883  0.08222  0.66396  1.0000
  C  Sn84      1.0  0.04027  0.10484  0.78312  1.0000
  O  Te81      1.0  0.06166  0.14510  0.91709  1.0000
  O  Te82      1.0  0.09405  0.08920  0.47368  1.0000
  O  Te83      1.0  0.05474  0.05398  0.44191  1.0000
  O  Te84      1.0  0.02235  0.10991  0.88538  1.0000
  Mg  Mg41      1.0  0.08362  0.05567  0.33142  1.0000
  Mg  Mg42      1.0  0.02823  0.14130  0.02761  1.0000
  C  Sn85      1.0  0.95860  0.88123  0.73598  1.0000
  C   C203      1.0  0.96242  0.90941  0.67359  1.0000
  C  Sn86      1.0  0.94485  0.92583  0.60408  1.0000
  C  Sn87      1.0  0.92301  0.91384  0.59687  1.0000
  C   C204      1.0  0.91920  0.88567  0.65926  1.0000
  C  Sn88      1.0  0.93675  0.86923  0.72877  1.0000
  O  Te85      1.0  0.97641  0.86521  0.80494  1.0000
  O  Te86      1.0  0.94909  0.95396  0.54246  1.0000
  O  Te87      1.0  0.90520  0.92988  0.52783  1.0000
  O  Te88      1.0  0.93253  0.84113  0.79039  1.0000
  Mg  Mg43      1.0  0.91935  0.96721  0.46041  1.0000
  Mg  Mg44      1.0  0.96225  0.82786  0.87254  1.0000
  C  Sn89      1.0  0.93983  0.12035  0.69988  1.0000
  C   C205      1.0  0.92190  0.11463  0.80064  1.0000
  C  Sn90      1.0  0.92343  0.09251  0.91976  1.0000
  C  Sn91      1.0  0.94330  0.07579  0.93864  1.0000
  C   C206      1.0  0.96121  0.08152  0.83794  1.0000
  C  Sn92      1.0  0.95969  0.10363  0.71876  1.0000
  O  Te89      1.0  0.93793  0.14257  0.58161  1.0000
  O  Te90      1.0  0.90075  0.08505  0.01901  1.0000
  O  Te91      1.0  0.94065  0.05143  0.05703  1.0000
  O  Te92      1.0  0.97783  0.10896  0.61957  1.0000
  Mg  Mg45      1.0  0.91140  0.05247  0.16269  1.0000
  Mg  Mg46      1.0  0.96720  0.14155  0.47592  1.0000
  C  Sn93      1.0  0.06722  0.92967  0.86964  1.0000
  C   C207      1.0  0.04754  0.92321  0.77911  1.0000
  C  Sn94      1.0  0.04272  0.89420  0.72825  1.0000
  C  Sn95      1.0  0.05788  0.87116  0.76880  1.0000
  C   C208      1.0  0.07754  0.87762  0.85931  1.0000
  C  Sn96      1.0  0.08237  0.90663  0.91020  1.0000
  O  Te93      1.0  0.07169  0.95883  0.91921  1.0000
  O  Te94      1.0  0.02295  0.88828  0.63780  1.0000
  O  Te95      1.0  0.05339  0.84198  0.71914  1.0000
  O  Te96      1.0  0.09760  0.91041  0.00061  1.0000
  Mg  Mg47      1.0  0.02429  0.84503  0.59834  1.0000
  Mg  Mg48      1.0  0.09628  0.95365  0.04021  1.0000
  C  Sn97      1.0  0.65883  0.66706  0.53645  1.0000
  C   C209      1.0  0.66512  0.69546  0.58978  1.0000
  C  Sn98      1.0  0.65199  0.71133  0.69921  1.0000
  C  Sn99      1.0  0.63216  0.69853  0.75662  1.0000
  C   C210      1.0  0.62587  0.67013  0.70332  1.0000
  C  Sn100     1.0  0.63899  0.65425  0.59386  1.0000
  O  Te97      1.0  0.67221  0.65160  0.42703  1.0000
  O  Te98      1.0  0.65863  0.73970  0.75074  1.0000
  O  Te99      1.0  0.61878  0.71401  0.86613  1.0000
  O  Te100     1.0  0.63237  0.62590  0.54236  1.0000
  Mg  Mg49      1.0  0.63483  0.75195  0.90071  1.0000
  Mg  Mg50      1.0  0.65615  0.61362  0.39247  1.0000
  C  Sn101     1.0  0.34196  0.32778  0.53689  1.0000
  C   C211      1.0  0.33522  0.30236  0.61834  1.0000
  C  Sn102     1.0  0.34714  0.29247  0.75840  1.0000
  C  Sn103     1.0  0.36619  0.30834  0.81836  1.0000
  C   C212      1.0  0.37292  0.33374  0.73695  1.0000
  C  Sn104     1.0  0.36101  0.34364  0.59685  1.0000
  O  Te101     1.0  0.32979  0.33726  0.39710  1.0000
  O  Te102     1.0  0.34008  0.26699  0.83770  1.0000
  O  Te103     1.0  0.37836  0.29883  0.95826  1.0000
  O  Te104     1.0  0.36806  0.36911  0.51759  1.0000
  Mg  Mg51      1.0  0.35762  0.26076  0.02356  1.0000
  Mg  Mg52      1.0  0.34600  0.37323  0.33178  1.0000
  C  Sn105     1.0  0.35069  0.70198  0.71421  1.0000
  C   C213      1.0  0.33314  0.69220  0.80887  1.0000
  C  Sn106     1.0  0.33666  0.67022  0.92692  1.0000
  C  Sn107     1.0  0.35817  0.65776  0.95095  1.0000
  C   C214      1.0  0.37571  0.66754  0.85635  1.0000
  C  Sn108     1.0  0.37221  0.68952  0.73824  1.0000
  O  Te105     1.0  0.34680  0.72397  0.59690  1.0000
  O  Te106     1.0  0.31433  0.65866  0.02002  1.0000
  O  Te107     1.0  0.35753  0.63361  0.06837  1.0000
  O  Te108     1.0  0.39000  0.69894  0.64519  1.0000
  Mg  Mg53      1.0  0.32797  0.62814  0.16480  1.0000
  Mg  Mg54      1.0  0.37638  0.72947  0.50045  1.0000
  C  Sn109     1.0  0.63095  0.29167  0.76803  1.0000
  C   C215      1.0  0.62460  0.31939  0.82836  1.0000
  C  Sn110     1.0  0.64061  0.33933  0.89135  1.0000
  C  Sn111     1.0  0.66346  0.33141  0.89400  1.0000
  C   C216      1.0  0.66981  0.30370  0.83368  1.0000
  C  Sn112     1.0  0.65380  0.28375  0.77069  1.0000
  O  Te109     1.0  0.61466  0.27209  0.70562  1.0000
  O  Te110     1.0  0.63385  0.36691  0.95102  1.0000
  O  Te111     1.0  0.67975  0.35102  0.95648  1.0000
  O  Te112     1.0  0.66056  0.25618  0.71102  1.0000
  Mg  Mg55      1.0  0.65774  0.38385  0.02362  1.0000
  Mg  Mg56      1.0  0.63215  0.23710  0.63831  1.0000
  C  Sn113     1.0  0.56580  0.56852  0.62639  1.0000
  C   C217      1.0  0.54701  0.57574  0.71582  1.0000
  C  Sn114     1.0  0.54362  0.60477  0.77038  1.0000
  C  Sn115     1.0  0.55933  0.62705  0.73472  1.0000
  C   C218      1.0  0.57810  0.61983  0.64532  1.0000
  C  Sn116     1.0  0.58151  0.59080  0.59073  1.0000
  O  Te113     1.0  0.56886  0.53935  0.57306  1.0000
  O  Te114     1.0  0.52471  0.61145  0.85963  1.0000
  O  Te115     1.0  0.55626  0.65624  0.78814  1.0000
  O  Te116     1.0  0.60041  0.58411  0.50150  1.0000
  Mg  Mg57      1.0  0.52790  0.65439  0.90549  1.0000
  Mg  Mg58      1.0  0.59722  0.54119  0.45551  1.0000
  C  Sn117     1.0  0.44057  0.37905  0.79104  1.0000
  C   C219      1.0  0.42171  0.38458  0.69022  1.0000
  C  Sn118     1.0  0.42207  0.40669  0.57101  1.0000
  C  Sn119     1.0  0.44170  0.42360  0.55210  1.0000
  C   C220      1.0  0.46055  0.41807  0.65286  1.0000
  C  Sn120     1.0  0.46020  0.39597  0.77213  1.0000
  O  Te117     1.0  0.43983  0.35684  0.90940  1.0000
  O  Te118     1.0  0.40301  0.41182  0.47170  1.0000
  O  Te119     1.0  0.44243  0.44583  0.43362  1.0000
  O  Te120     1.0  0.47925  0.39083  0.87137  1.0000
  Mg  Mg59      1.0  0.41223  0.44448  0.32791  1.0000
  Mg  Mg60      1.0  0.46552  0.35603  0.01514  1.0000
  C  Sn121     1.0  0.44097  0.62093  0.71340  1.0000
  C   C221      1.0  0.42319  0.61511  0.81537  1.0000
  C  Sn122     1.0  0.42481  0.59271  0.93275  1.0000
  C  Sn123     1.0  0.44462  0.57579  0.94863  1.0000
  C   C222      1.0  0.46239  0.58162  0.84672  1.0000
  C  Sn124     1.0  0.46078  0.60401  0.72928  1.0000
  O  Te121     1.0  0.43899  0.64343  0.59691  1.0000
  O  Te122     1.0  0.40227  0.58515  0.03325  1.0000
  O  Te123     1.0  0.44206  0.55114  0.06523  1.0000
  O  Te124     1.0  0.47877  0.60944  0.62884  1.0000
  Mg  Mg61      1.0  0.41300  0.55216  0.17360  1.0000
  Mg  Mg62      1.0  0.46807  0.64244  0.48851  1.0000
  C  Sn125     1.0  0.55933  0.37760  0.68798  1.0000
  C   C223      1.0  0.57777  0.38244  0.79502  1.0000
  C  Sn126     1.0  0.57722  0.40448  0.91749  1.0000
  C  Sn127     1.0  0.55783  0.42202  0.93339  1.0000
  C   C224      1.0  0.53941  0.41717  0.82641  1.0000
  C  Sn128     1.0  0.53994  0.39515  0.70387  1.0000
  O  Te125     1.0  0.56025  0.35545  0.56644  1.0000
  O  Te126     1.0  0.59133  0.40678  0.02302  1.0000
  O  Te127     1.0  0.55240  0.44205  0.05504  1.0000
  O  Te128     1.0  0.52132  0.39070  0.59841  1.0000
  Mg  Mg63      1.0  0.58201  0.43964  0.16916  1.0000
  Mg  Mg64      1.0  0.53062  0.35784  0.45229  1.0000
