data_image0
_chemical_formula_structural       H40C160S8N32F16C2Sn2C2HTe2HMgC2Sn2C2HTe2HMgC2Sn2C2HTe2HMgC2Sn2C2HTe2HMgC2Sn2C2HTe2HMgC2Sn2C2HTe2HMgC2Sn2C2HTe2HMgC2Sn2C2HTe2HMgC2Sn2C2HTe2HMgC2Sn2C2HTe2HMgC2Sn2C2HTe2HMgC2Sn2C2HTe2HMgC2Sn2C2HTe2HMgC2Sn2C2HTe2HMgC2Sn2C2HTe2HMgC2Sn2C2HTe2HMgC2Sn2C2HTe2HMgC2Sn2C2HTe2HMgC2Sn2C2HTe2HMgC2Sn2C2HTe2HMgC2Sn2C2HTe2HMgC2Sn2C2HTe2HMgC2Sn2C2HTe2HMgC2Sn2C2HTe2HMgC2Sn2C2HTe2HMgC2Sn2C2HTe2HMgC2Sn2C2HTe2HMgC2Sn2C2HTe2HMgC2Sn2C2HTe2HMgC2Sn2C2HTe2HMgC2Sn2C2HTe2HMgC2Sn2C2HTe2HMg
_chemical_formula_sum              "H104 C288 S8 N32 F16 Sn64 Te64 Mg32"
_cell_length_a       61.0828
_cell_length_b       43.6998
_cell_length_c       8.09294
_cell_angle_alpha    89.4254
_cell_angle_beta     73.86
_cell_angle_gamma    90.0582

_symmetry_space_group_name_H-M    'P1'
_space_group_IT_number       1

loop_
  _space_group_symop_operation_xyz
  'x, y, z'

loop_
  _atom_site_type_symbol
  _atom_site_label
  _atom_site_symmetry_multiplicity
  _atom_site_fract_x
  _atom_site_fract_y
  _atom_site_fract_z
  _atom_site_occupancy
  H   H1        1.0  0.39838  0.33624  0.34154  1.0000
  H   H2        1.0  0.58733  0.66415  0.34695  1.0000
  H   H3        1.0  0.59817  0.33445  0.16366  1.0000
  H   H4        1.0  0.41129  0.66294  0.11221  1.0000
  H   H5        1.0  0.44241  0.46937  0.26342  1.0000
  H   H6        1.0  0.55553  0.52448  0.20795  1.0000
  H   H7        1.0  0.55509  0.46939  0.21626  1.0000
  H   H8        1.0  0.44209  0.52449  0.27321  1.0000
  H   H9        1.0  0.90678  0.83514  0.12981  1.0000
  H   H10       1.0  0.09324  0.16530  0.14505  1.0000
  H   H11       1.0  0.08983  0.83420  0.39464  1.0000
  H   H12       1.0  0.90396  0.16461  0.32756  1.0000
  H   H13       1.0  0.94271  0.96797  0.26636  1.0000
  H   H14       1.0  0.05438  0.02447  0.24605  1.0000
  H   H15       1.0  0.05474  0.96937  0.24374  1.0000
  H   H16       1.0  0.94265  0.02310  0.25785  1.0000
  H   H17       1.0  0.99832  0.10157  0.24170  1.0000
  H   H18       1.0  0.99906  0.89078  0.25712  1.0000
  H   H19       1.0  0.49908  0.60246  0.23713  1.0000
  H   H20       1.0  0.49879  0.39155  0.23605  1.0000
  H   H21       1.0  0.40423  0.32850  0.83977  1.0000
  H   H22       1.0  0.58734  0.66374  0.86373  1.0000
  H   H23       1.0  0.60095  0.33448  0.65827  1.0000
  H   H24       1.0  0.40922  0.65666  0.62680  1.0000
  H   H25       1.0  0.44550  0.46728  0.75306  1.0000
  H   H26       1.0  0.55772  0.52484  0.70715  1.0000
  H   H27       1.0  0.55774  0.46979  0.72084  1.0000
  H   H28       1.0  0.44466  0.52243  0.75929  1.0000
  H   H29       1.0  0.90797  0.83411  0.62944  1.0000
  H   H30       1.0  0.09730  0.16212  0.64576  1.0000
  H   H31       1.0  0.09270  0.83740  0.88883  1.0000
  H   H32       1.0  0.90736  0.16730  0.82671  1.0000
  H   H33       1.0  0.94391  0.96986  0.76608  1.0000
  H   H34       1.0  0.05618  0.02347  0.75100  1.0000
  H   H35       1.0  0.05586  0.96840  0.74644  1.0000
  H   H36       1.0  0.94459  0.02499  0.76058  1.0000
  H   H37       1.0  0.00096  0.10204  0.75592  1.0000
  H   H38       1.0  0.99934  0.89116  0.75723  1.0000
  H   H39       1.0  0.49997  0.60152  0.73814  1.0000
  H   H40       1.0  0.50184  0.39074  0.75351  1.0000
  C   C1        1.0  0.26913  0.26591  0.20976  1.0000
  C   C2        1.0  0.72314  0.73774  0.28467  1.0000
  C   C3        1.0  0.72976  0.27085  0.27730  1.0000
  C   C4        1.0  0.27513  0.73976  0.22175  1.0000
  C   C5        1.0  0.26330  0.23581  0.28160  1.0000
  C   C6        1.0  0.72492  0.76565  0.37243  1.0000
  C   C7        1.0  0.73454  0.24072  0.20695  1.0000
  C   C8        1.0  0.27126  0.76728  0.13573  1.0000
  C   C9        1.0  0.24164  0.22180  0.28746  1.0000
  C   C10       1.0  0.74688  0.77824  0.37113  1.0000
  C   C11       1.0  0.75627  0.22609  0.19106  1.0000
  C   C12       1.0  0.24842  0.77777  0.14783  1.0000
  C   C13       1.0  0.28966  0.28038  0.20812  1.0000
  C   C14       1.0  0.70250  0.72503  0.27609  1.0000
  C   C15       1.0  0.70910  0.28547  0.28555  1.0000
  C   C16       1.0  0.29668  0.72855  0.21791  1.0000
  C   C17       1.0  0.30732  0.29308  0.21202  1.0000
  C   C18       1.0  0.68500  0.71325  0.26080  1.0000
  C   C19       1.0  0.69102  0.29713  0.28302  1.0000
  C   C20       1.0  0.31470  0.71704  0.22313  1.0000
  C   C21       1.0  0.39136  0.34569  0.24046  1.0000
  C   C22       1.0  0.60236  0.65466  0.25343  1.0000
  C   C23       1.0  0.60554  0.34551  0.25747  1.0000
  C   C24       1.0  0.39654  0.65534  0.21679  1.0000
  C   C25       1.0  0.47955  0.43150  0.21431  1.0000
  C   C26       1.0  0.51979  0.56245  0.21661  1.0000
  C   C27       1.0  0.51797  0.43136  0.25980  1.0000
  C   C28       1.0  0.47824  0.56250  0.25808  1.0000
  C   C29       1.0  0.01855  0.02961  0.25887  1.0000
  C   C30       1.0  0.97826  0.96326  0.26150  1.0000
  C   C31       1.0  0.97851  0.02904  0.23985  1.0000
  C   C32       1.0  0.01938  0.96373  0.24569  1.0000
  C   C33       1.0  0.45832  0.48137  0.25179  1.0000
  C   C34       1.0  0.53963  0.51257  0.21770  1.0000
  C   C35       1.0  0.53926  0.48133  0.22563  1.0000
  C   C36       1.0  0.45805  0.51261  0.26026  1.0000
  C   C37       1.0  0.76781  0.76363  0.28088  1.0000
  C   C38       1.0  0.22514  0.23742  0.22078  1.0000
  C   C39       1.0  0.22857  0.76112  0.24482  1.0000
  C   C40       1.0  0.77386  0.24087  0.24867  1.0000
  C   C41       1.0  0.76525  0.73645  0.19858  1.0000
  C   C42       1.0  0.23175  0.26627  0.14760  1.0000
  C   C43       1.0  0.23318  0.73432  0.32447  1.0000
  C   C44       1.0  0.76829  0.26978  0.31987  1.0000
  C   C45       1.0  0.74383  0.72379  0.20376  1.0000
  C   C46       1.0  0.25289  0.27991  0.14226  1.0000
  C   C47       1.0  0.25547  0.72427  0.31387  1.0000
  C   C48       1.0  0.74728  0.28426  0.33192  1.0000
  C   C49       1.0  0.78905  0.77608  0.27693  1.0000
  C   C50       1.0  0.20415  0.22436  0.22440  1.0000
  C   C51       1.0  0.20663  0.77198  0.25604  1.0000
  C   C52       1.0  0.79489  0.22728  0.23795  1.0000
  C   C53       1.0  0.80725  0.78789  0.27654  1.0000
  C   C54       1.0  0.18581  0.21282  0.22619  1.0000
  C   C55       1.0  0.18845  0.78401  0.25840  1.0000
  C   C56       1.0  0.81319  0.21514  0.23164  1.0000
  C   C57       1.0  0.89267  0.84369  0.23515  1.0000
  C   C58       1.0  0.10160  0.15610  0.23887  1.0000
  C   C59       1.0  0.10423  0.84291  0.29056  1.0000
  C   C60       1.0  0.89579  0.15549  0.23314  1.0000
  C   C61       1.0  0.97832  0.93066  0.27113  1.0000
  C   C62       1.0  0.01754  0.06228  0.27065  1.0000
  C   C63       1.0  0.01961  0.93110  0.23955  1.0000
  C   C64       1.0  0.97918  0.06169  0.22207  1.0000
  C   C65       1.0  0.51969  0.52985  0.22335  1.0000
  C   C66       1.0  0.47868  0.46411  0.23211  1.0000
  C   C67       1.0  0.47812  0.52990  0.25200  1.0000
  C   C68       1.0  0.51893  0.46404  0.24236  1.0000
  C   C69       1.0  0.95837  0.98018  0.26070  1.0000
  C   C70       1.0  0.03867  0.01247  0.25108  1.0000
  C   C71       1.0  0.03904  0.98121  0.24627  1.0000
  C   C72       1.0  0.95847  0.01142  0.25231  1.0000
  C   C73       1.0  0.99835  0.07677  0.24443  1.0000
  C   C74       1.0  0.99901  0.91567  0.25582  1.0000
  C   C75       1.0  0.99862  0.01296  0.25026  1.0000
  C   C76       1.0  0.99876  0.97999  0.25236  1.0000
  C   C77       1.0  0.49906  0.57757  0.23709  1.0000
  C   C78       1.0  0.49878  0.41640  0.23647  1.0000
  C   C79       1.0  0.49889  0.51344  0.23727  1.0000
  C   C80       1.0  0.49884  0.48049  0.23705  1.0000
  C   C81       1.0  0.27210  0.26467  0.72263  1.0000
  C   C82       1.0  0.72316  0.73941  0.78885  1.0000
  C   C83       1.0  0.73172  0.26780  0.77748  1.0000
  C   C84       1.0  0.27481  0.73588  0.72804  1.0000
  C   C85       1.0  0.26630  0.23394  0.78558  1.0000
  C   C86       1.0  0.72561  0.76714  0.87667  1.0000
  C   C87       1.0  0.73709  0.23824  0.70020  1.0000
  C   C88       1.0  0.27373  0.76415  0.63831  1.0000
  C   C89       1.0  0.24443  0.22056  0.79191  1.0000
  C   C90       1.0  0.74788  0.77885  0.87358  1.0000
  C   C91       1.0  0.75892  0.22400  0.68410  1.0000
  C   C92       1.0  0.25210  0.77760  0.63807  1.0000
  C   C93       1.0  0.29289  0.27818  0.72233  1.0000
  C   C94       1.0  0.70213  0.72765  0.78252  1.0000
  C   C95       1.0  0.71087  0.28205  0.78866  1.0000
  C   C96       1.0  0.29515  0.72234  0.73725  1.0000
  C   C97       1.0  0.31093  0.28975  0.72803  1.0000
  C   C98       1.0  0.68431  0.71618  0.77086  1.0000
  C   C99       1.0  0.69283  0.29388  0.78592  1.0000
  C   C100      1.0  0.31244  0.70969  0.75096  1.0000
  C   C101      1.0  0.39613  0.33978  0.75010  1.0000
  C   C102      1.0  0.60222  0.65635  0.76097  1.0000
  C   C103      1.0  0.60840  0.34463  0.75424  1.0000
  C   C104      1.0  0.39510  0.64938  0.73711  1.0000
  C   C105      1.0  0.48256  0.43000  0.72383  1.0000
  C   C106      1.0  0.52133  0.56211  0.71741  1.0000
  C   C107      1.0  0.52094  0.43106  0.77000  1.0000
  C   C108      1.0  0.47982  0.56095  0.75837  1.0000
  C   C109      1.0  0.02036  0.02945  0.76760  1.0000
  C   C110      1.0  0.97925  0.96410  0.76505  1.0000
  C   C111      1.0  0.98040  0.03000  0.74760  1.0000
  C   C112      1.0  0.02034  0.96367  0.75044  1.0000
  C   C113      1.0  0.46115  0.47955  0.74629  1.0000
  C   C114      1.0  0.54186  0.51265  0.71956  1.0000
  C   C115      1.0  0.54178  0.48140  0.73042  1.0000
  C   C116      1.0  0.46055  0.51078  0.75292  1.0000
  C   C117      1.0  0.76839  0.76290  0.78724  1.0000
  C   C118      1.0  0.22771  0.23723  0.73214  1.0000
  C   C119      1.0  0.23079  0.76335  0.72701  1.0000
  C   C120      1.0  0.77632  0.23916  0.74171  1.0000
  C   C121      1.0  0.76520  0.73541  0.70954  1.0000
  C   C122      1.0  0.23412  0.26683  0.67026  1.0000
  C   C123      1.0  0.23272  0.73553  0.80845  1.0000
  C   C124      1.0  0.77037  0.26770  0.81699  1.0000
  C   C125      1.0  0.74351  0.72457  0.70632  1.0000
  C   C126      1.0  0.25528  0.28008  0.66747  1.0000
  C   C127      1.0  0.25379  0.72239  0.80839  1.0000
  C   C128      1.0  0.74877  0.28107  0.83844  1.0000
  C   C129      1.0  0.78995  0.77453  0.78184  1.0000
  C   C130      1.0  0.20660  0.22444  0.73590  1.0000
  C   C131      1.0  0.20982  0.77663  0.73063  1.0000
  C   C132      1.0  0.79743  0.22584  0.73031  1.0000
  C   C133      1.0  0.80835  0.78619  0.77745  1.0000
  C   C134      1.0  0.18848  0.21238  0.73797  1.0000
  C   C135      1.0  0.19185  0.78914  0.73201  1.0000
  C   C136      1.0  0.81571  0.21407  0.72720  1.0000
  C   C137      1.0  0.89371  0.84326  0.73161  1.0000
  C   C138      1.0  0.10535  0.15355  0.74296  1.0000
  C   C139      1.0  0.10651  0.84556  0.77869  1.0000
  C   C140      1.0  0.89891  0.15732  0.73624  1.0000
  C   C141      1.0  0.97894  0.93145  0.77274  1.0000
  C   C142      1.0  0.01988  0.06212  0.78113  1.0000
  C   C143      1.0  0.02023  0.93110  0.74144  1.0000
  C   C144      1.0  0.98157  0.06267  0.73222  1.0000
  C   C145      1.0  0.52171  0.52949  0.72497  1.0000
  C   C146      1.0  0.48147  0.46269  0.73515  1.0000
  C   C147      1.0  0.48025  0.52841  0.75042  1.0000
  C   C148      1.0  0.52159  0.46368  0.74968  1.0000
  C   C149      1.0  0.95967  0.98162  0.76304  1.0000
  C   C150      1.0  0.04030  0.01183  0.75733  1.0000
  C   C151      1.0  0.04025  0.98060  0.75112  1.0000
  C   C152      1.0  0.96021  0.01289  0.75639  1.0000
  C   C153      1.0  0.00083  0.07723  0.75662  1.0000
  C   C154      1.0  0.99950  0.91606  0.75732  1.0000
  C   C155      1.0  0.00021  0.01335  0.75833  1.0000
  C   C156      1.0  0.99991  0.98038  0.75837  1.0000
  C   C157      1.0  0.50036  0.57664  0.73783  1.0000
  C   C158      1.0  0.50180  0.41558  0.74961  1.0000
  C   C159      1.0  0.50114  0.51252  0.73871  1.0000
  C   C160      1.0  0.50139  0.47957  0.74118  1.0000
  S   S1        1.0  0.27447  0.81355  0.97227  1.0000
  S   S2        1.0  0.73339  0.19167  0.08285  1.0000
  S   S3        1.0  0.71828  0.81163  0.53417  1.0000
  S   S4        1.0  0.26269  0.18603  0.40610  1.0000
  S   S5        1.0  0.28156  0.81047  0.47429  1.0000
  S   S6        1.0  0.73644  0.18915  0.57525  1.0000
  S   S7        1.0  0.72020  0.81355  0.03525  1.0000
  S   S8        1.0  0.26529  0.18356  0.90436  1.0000
  N   N1        1.0  0.40092  0.36811  0.14030  1.0000
  N   N2        1.0  0.60116  0.63185  0.15519  1.0000
  N   N3        1.0  0.59616  0.36869  0.34856  1.0000
  N   N4        1.0  0.39781  0.63381  0.32503  1.0000
  N   N5        1.0  0.89525  0.86476  0.33980  1.0000
  N   N6        1.0  0.09369  0.13274  0.33742  1.0000
  N   N7        1.0  0.10209  0.86440  0.18449  1.0000
  N   N8        1.0  0.90325  0.13150  0.14209  1.0000
  N   N9        1.0  0.24790  0.80402  0.06031  1.0000
  N   N10       1.0  0.75786  0.19805  0.12122  1.0000
  N   N11       1.0  0.74547  0.80457  0.45869  1.0000
  N   N12       1.0  0.23909  0.19337  0.35644  1.0000
  N   N13       1.0  0.28772  0.78560  0.03883  1.0000
  N   N14       1.0  0.71992  0.22347  0.14973  1.0000
  N   N15       1.0  0.70718  0.78249  0.46164  1.0000
  N   N16       1.0  0.27692  0.21780  0.34592  1.0000
  N   N17       1.0  0.40479  0.36359  0.65828  1.0000
  N   N18       1.0  0.60121  0.63491  0.65373  1.0000
  N   N19       1.0  0.59930  0.36760  0.84832  1.0000
  N   N20       1.0  0.39735  0.62853  0.84611  1.0000
  N   N21       1.0  0.89615  0.86489  0.83362  1.0000
  N   N22       1.0  0.09720  0.13055  0.84370  1.0000
  N   N23       1.0  0.10352  0.86610  0.67052  1.0000
  N   N24       1.0  0.90638  0.13307  0.64749  1.0000
  N   N25       1.0  0.25419  0.80420  0.54915  1.0000
  N   N26       1.0  0.76080  0.19593  0.61436  1.0000
  N   N27       1.0  0.74718  0.80529  0.95917  1.0000
  N   N28       1.0  0.24163  0.19191  0.85770  1.0000
  N   N29       1.0  0.29190  0.78065  0.54900  1.0000
  N   N30       1.0  0.72269  0.22078  0.64170  1.0000
  N   N31       1.0  0.70832  0.78481  0.96533  1.0000
  N   N32       1.0  0.27987  0.21514  0.84584  1.0000
  F   F1        1.0  0.78372  0.72113  0.10817  1.0000
  F   F2        1.0  0.21758  0.28188  0.07553  1.0000
  F   F3        1.0  0.21603  0.71660  0.41733  1.0000
  F   F4        1.0  0.78349  0.28486  0.38296  1.0000
  F   F5        1.0  0.74356  0.69691  0.12407  1.0000
  F   F6        1.0  0.25752  0.30768  0.06674  1.0000
  F   F7        1.0  0.25754  0.69838  0.40025  1.0000
  F   F8        1.0  0.74453  0.31241  0.40025  1.0000
  F   F9        1.0  0.78349  0.71824  0.63293  1.0000
  F   F10       1.0  0.21978  0.28435  0.60909  1.0000
  F   F11       1.0  0.21395  0.71970  0.89224  1.0000
  F   F12       1.0  0.78571  0.28338  0.87535  1.0000
  F   F13       1.0  0.74254  0.69871  0.61770  1.0000
  F   F14       1.0  0.25873  0.30912  0.60839  1.0000
  F   F15       1.0  0.25322  0.69547  0.89247  1.0000
  F   F16       1.0  0.74463  0.30769  0.92422  1.0000
  C   C161      1.0  0.14468  0.15496  0.31550  1.0000
  C   C162      1.0  0.12614  0.16713  0.26803  1.0000
  C  Sn1       1.0  0.12769  0.19613  0.19123  1.0000
  C  Sn2       1.0  0.14822  0.21320  0.16152  1.0000
  C   C163      1.0  0.16668  0.20081  0.20937  1.0000
  C   C164      1.0  0.16494  0.17177  0.28618  1.0000
  H   H41       1.0  0.14334  0.13249  0.37485  1.0000
  O  Te1       1.0  0.10900  0.20795  0.14465  1.0000
  O  Te2       1.0  0.15024  0.24223  0.08492  1.0000
  H   H42       1.0  0.17931  0.16235  0.32282  1.0000
  Mg  Mg1       1.0  0.12006  0.24852  0.04420  1.0000
  C   C165      1.0  0.86630  0.79675  0.14193  1.0000
  C   C166      1.0  0.87073  0.82403  0.21553  1.0000
  C  Sn3       1.0  0.85303  0.83983  0.32911  1.0000
  C  Sn4       1.0  0.83049  0.82803  0.36953  1.0000
  C   C167      1.0  0.82623  0.80071  0.29532  1.0000
  C   C168      1.0  0.84407  0.78509  0.18179  1.0000
  H   H43       1.0  0.88010  0.78465  0.05416  1.0000
  O  Te3       1.0  0.85776  0.86706  0.40144  1.0000
  O  Te4       1.0  0.81249  0.84335  0.48269  1.0000
  H   H44       1.0  0.84063  0.76396  0.12491  1.0000
  Mg  Mg2       1.0  0.82751  0.87961  0.54840  1.0000
  C   C169      1.0  0.84276  0.16460  0.14066  1.0000
  C   C170      1.0  0.83406  0.19227  0.21622  1.0000
  C  Sn5       1.0  0.84720  0.21080  0.29158  1.0000
  C  Sn6       1.0  0.86944  0.20140  0.29105  1.0000
  C   C171      1.0  0.87799  0.17369  0.21502  1.0000
  C   C172      1.0  0.86470  0.15532  0.14002  1.0000
  H   H45       1.0  0.83248  0.15040  0.08254  1.0000
  O  Te5       1.0  0.83824  0.23836  0.36657  1.0000
  O  Te6       1.0  0.88294  0.21948  0.36541  1.0000
  H   H46       1.0  0.87144  0.13392  0.08142  1.0000
  Mg  Mg3       1.0  0.86320  0.25509  0.45167  1.0000
  C   C173      1.0  0.15322  0.84046  0.16113  1.0000
  C   C174      1.0  0.13099  0.83099  0.24439  1.0000
  C  Sn7       1.0  0.12719  0.80469  0.34821  1.0000
  C  Sn8       1.0  0.14602  0.78762  0.36887  1.0000
  C   C175      1.0  0.16818  0.79730  0.28512  1.0000
  C   C176      1.0  0.17180  0.82364  0.18148  1.0000
  H   H47       1.0  0.15602  0.86085  0.08101  1.0000
  O  Te7       1.0  0.10488  0.79554  0.43041  1.0000
  O  Te8       1.0  0.14270  0.76126  0.47194  1.0000
  H   H48       1.0  0.18901  0.83098  0.11713  1.0000
  Mg  Mg4       1.0  0.10909  0.75803  0.55738  1.0000
  C   C177      1.0  0.05703  0.07112  0.39914  1.0000
  C   C178      1.0  0.03852  0.07932  0.33864  1.0000
  C  Sn9       1.0  0.03799  0.10796  0.26160  1.0000
  C  Sn10      1.0  0.05637  0.12872  0.24496  1.0000
  C   C179      1.0  0.07482  0.12029  0.30579  1.0000
  C   C180      1.0  0.07517  0.09157  0.38271  1.0000
  H   H49       1.0  0.05731  0.04889  0.45857  1.0000
  O  Te9       1.0  0.01935  0.11580  0.20192  1.0000
  O  Te10      1.0  0.05628  0.15749  0.16843  1.0000
  H   H50       1.0  0.08952  0.08522  0.42944  1.0000
  Mg  Mg5       1.0  0.02708  0.15764  0.10711  1.0000
  C   C181      1.0  0.91967  0.91013  0.44427  1.0000
  C   C182      1.0  0.91596  0.88593  0.34360  1.0000
  C  Sn11      1.0  0.93419  0.87317  0.21934  1.0000
  C  Sn12      1.0  0.95653  0.88490  0.19576  1.0000
  C   C183      1.0  0.96007  0.90910  0.29720  1.0000
  C   C184      1.0  0.94171  0.92170  0.42113  1.0000
  H   H51       1.0  0.90547  0.91987  0.54022  1.0000
  O  Te11      1.0  0.93018  0.84901  0.11983  1.0000
  O  Te12      1.0  0.97506  0.87256  0.07254  1.0000
  H   H52       1.0  0.94459  0.94042  0.49913  1.0000
  Mg  Mg6       1.0  0.92411  0.83795  0.96843  1.0000
  C   C185      1.0  0.95489  0.11881  0.24724  1.0000
  C   C186      1.0  0.95933  0.08782  0.21223  1.0000
  C  Sn13      1.0  0.94587  0.07097  0.13156  1.0000
  C  Sn14      1.0  0.92763  0.08548  0.08519  1.0000
  C   C187      1.0  0.92333  0.11649  0.12067  1.0000
  C   C188      1.0  0.93690  0.13313  0.20149  1.0000
  H   H53       1.0  0.96540  0.13169  0.30969  1.0000
  O  Te13      1.0  0.95054  0.04004  0.09759  1.0000
  O  Te14      1.0  0.91390  0.06918  0.00438  1.0000
  H   H54       1.0  0.93346  0.15713  0.22848  1.0000
  Mg  Mg7       1.0  0.89020  0.02561  0.98520  1.0000
  C   C189      1.0  0.06792  0.92056  0.08684  1.0000
  C   C190      1.0  0.04542  0.91427  0.18017  1.0000
  C  Sn15      1.0  0.04048  0.88946  0.29494  1.0000
  C  Sn16      1.0  0.05843  0.87066  0.31644  1.0000
  C   C191      1.0  0.08089  0.87715  0.22256  1.0000
  C   C192      1.0  0.08564  0.90203  0.10801  1.0000
  H   H55       1.0  0.03478  0.93790  0.99828  1.0000
  O  Te15      1.0  0.01790  0.88350  0.38712  1.0000
  O  Te16      1.0  0.05397  0.84573  0.43034  1.0000
  H   H56       1.0  0.10307  0.90690  0.03585  1.0000
  Mg  Mg8       1.0  0.02043  0.84689  0.52687  1.0000
  C   C193      1.0  0.62627  0.70247  0.36275  1.0000
  C   C194      1.0  0.62303  0.67719  0.26769  1.0000
  C  Sn17      1.0  0.64176  0.66178  0.16339  1.0000
  C  Sn18      1.0  0.66415  0.67191  0.15440  1.0000
  C   C195      1.0  0.66721  0.69721  0.25010  1.0000
  C   C196      1.0  0.64834  0.71247  0.35401  1.0000
  H   H57       1.0  0.61167  0.71427  0.44323  1.0000
  O  Te17      1.0  0.63822  0.63657  0.06921  1.0000
  O  Te18      1.0  0.68318  0.65692  0.05123  1.0000
  H   H58       1.0  0.65086  0.73203  0.42768  1.0000
  Mg  Mg9       1.0  0.63274  0.62179  0.94703  1.0000
  C   C197      1.0  0.35867  0.29721  0.31846  1.0000
  C   C198      1.0  0.36900  0.32459  0.24589  1.0000
  C  Sn19      1.0  0.35772  0.34438  0.16066  1.0000
  C  Sn20      1.0  0.33569  0.33655  0.14810  1.0000
  C   C199      1.0  0.32550  0.30912  0.22123  1.0000
  C   C200      1.0  0.33695  0.28948  0.30618  1.0000
  H   H59       1.0  0.36752  0.28202  0.38427  1.0000
  O  Te19      1.0  0.36828  0.37164  0.08884  1.0000
  O  Te20      1.0  0.32403  0.35592  0.06369  1.0000
  H   H60       1.0  0.32894  0.26829  0.36245  1.0000
  Mg  Mg10      1.0  0.30870  0.38861  0.98664  1.0000
  C   C201      1.0  0.33708  0.66917  0.34408  1.0000
  C   C202      1.0  0.33443  0.69656  0.26123  1.0000
  C  Sn21      1.0  0.35331  0.71104  0.14984  1.0000
  C  Sn22      1.0  0.37523  0.69779  0.12108  1.0000
  C   C203      1.0  0.37770  0.67037  0.20449  1.0000
  C   C204      1.0  0.35869  0.65608  0.31573  1.0000
  H   H61       1.0  0.32237  0.65811  0.43008  1.0000
  O  Te21      1.0  0.35036  0.73839  0.06817  1.0000
  O  Te22      1.0  0.39439  0.71177  0.01036  1.0000
  H   H62       1.0  0.36075  0.63487  0.37977  1.0000
  Mg  Mg11      1.0  0.34484  0.74688  0.92897  1.0000
  C   C205      1.0  0.63862  0.29782  0.19014  1.0000
  C   C206      1.0  0.62818  0.32521  0.25656  1.0000
  C  Sn23      1.0  0.63969  0.34615  0.33192  1.0000
  C  Sn24      1.0  0.66207  0.33949  0.34071  1.0000
  C   C207      1.0  0.67237  0.31202  0.27378  1.0000
  C   C208      1.0  0.66070  0.29123  0.19870  1.0000
  H   H63       1.0  0.62960  0.28173  0.13196  1.0000
  O  Te23      1.0  0.62900  0.37341  0.39771  1.0000
  O  Te24      1.0  0.67396  0.36001  0.41528  1.0000
  H   H64       1.0  0.66879  0.27003  0.14718  1.0000
  Mg  Mg12      1.0  0.65218  0.39411  0.48702  1.0000
  C   C209      1.0  0.54259  0.61391  0.31199  1.0000
  C   C210      1.0  0.53971  0.58909  0.21244  1.0000
  C  Sn25      1.0  0.55829  0.57744  0.08674  1.0000
  C  Sn26      1.0  0.58015  0.59093  0.06055  1.0000
  C   C211      1.0  0.58286  0.61574  0.16089  1.0000
  C   C212      1.0  0.56414  0.62723  0.28629  1.0000
  H   H65       1.0  0.52812  0.62279  0.40907  1.0000
  O  Te25      1.0  0.51828  0.55072  0.98837  1.0000
  O  Te26      1.0  0.56218  0.57783  0.93584  1.0000
  H   H66       1.0  0.56638  0.64644  0.36342  1.0000
  Mg  Mg13      1.0  0.54922  0.54363  0.83416  1.0000
  C   C213      1.0  0.45241  0.37619  0.25358  1.0000
  C   C214      1.0  0.46056  0.40505  0.18889  1.0000
  C  Sn27      1.0  0.44833  0.42296  0.10161  1.0000
  C  Sn28      1.0  0.42758  0.41170  0.07891  1.0000
  C   C215      1.0  0.41957  0.38281  0.14421  1.0000
  C   C216      1.0  0.43194  0.36508  0.23131  1.0000
  H   H67       1.0  0.46198  0.36247  0.32105  1.0000
  O  Te27      1.0  0.45672  0.45174  0.03774  1.0000
  O  Te28      1.0  0.37819  0.42722  0.99223  1.0000
  H   H68       1.0  0.42562  0.34274  0.28148  1.0000
  Mg  Mg14      1.0  0.39664  0.46501  0.92862  1.0000
  C   C217      1.0  0.41997  0.58523  0.42696  1.0000
  C   C218      1.0  0.41808  0.61286  0.34370  1.0000
  C  Sn29      1.0  0.43685  0.62495  0.21945  1.0000
  C  Sn30      1.0  0.45787  0.60902  0.17801  1.0000
  C   C219      1.0  0.45958  0.58138  0.26195  1.0000
  C   C220      1.0  0.44069  0.56949  0.38613  1.0000
  H   H69       1.0  0.40535  0.57602  0.52297  1.0000
  O  Te29      1.0  0.43468  0.65260  0.13754  1.0000
  O  Te30      1.0  0.47690  0.62058  0.05429  1.0000
  H   H70       1.0  0.44215  0.54808  0.45049  1.0000
  Mg  Mg15      1.0  0.42862  0.65716  0.97803  1.0000
  C   C221      1.0  0.56709  0.41792  0.40591  1.0000
  C   C222      1.0  0.57423  0.38814  0.35764  1.0000
  C  Sn31      1.0  0.56224  0.37018  0.27020  1.0000
  C  Sn32      1.0  0.54274  0.38232  0.23049  1.0000
  C   C223      1.0  0.53575  0.41214  0.27924  1.0000
  C   C224      1.0  0.54787  0.42992  0.36674  1.0000
  H   H71       1.0  0.57648  0.43168  0.47353  1.0000
  O  Te31      1.0  0.56960  0.34047  0.22297  1.0000
  O  Te32      1.0  0.53045  0.36487  0.14315  1.0000
  H   H72       1.0  0.54235  0.45298  0.40400  1.0000
  Mg  Mg16      1.0  0.54719  0.32562  0.10593  1.0000
  C   C225      1.0  0.14671  0.21250  0.65266  1.0000
  C   C226      1.0  0.16329  0.20343  0.73199  1.0000
  C  Sn33      1.0  0.16166  0.17498  0.81494  1.0000
  C  Sn34      1.0  0.14305  0.15529  0.81827  1.0000
  C   C227      1.0  0.12656  0.16456  0.73841  1.0000
  C   C228      1.0  0.12836  0.19308  0.65582  1.0000
  H   H73       1.0  0.14810  0.23456  0.58867  1.0000
  O  Te33      1.0  0.17837  0.16629  0.89361  1.0000
  O  Te34      1.0  0.14100  0.12672  0.90020  1.0000
  H   H74       1.0  0.11552  0.20008  0.59431  1.0000
  Mg  Mg17      1.0  0.16809  0.12515  0.98904  1.0000
  C   C229      1.0  0.85621  0.78844  0.64219  1.0000
  C   C230      1.0  0.83464  0.79528  0.74997  1.0000
  C  Sn35      1.0  0.83152  0.82107  0.85449  1.0000
  C  Sn36      1.0  0.85037  0.84033  0.85073  1.0000
  C   C231      1.0  0.87188  0.83330  0.74237  1.0000
  C   C232      1.0  0.87481  0.80743  0.63835  1.0000
  H   H75       1.0  0.85848  0.76843  0.56163  1.0000
  O  Te35      1.0  0.80986  0.82756  0.96146  1.0000
  O  Te36      1.0  0.84773  0.86625  0.95382  1.0000
  H   H76       1.0  0.89151  0.80214  0.55483  1.0000
  Mg  Mg18      1.0  0.85169  0.86741  0.07813  1.0000
  C   C233      1.0  0.85641  0.15617  0.65132  1.0000
  C   C234      1.0  0.87480  0.16841  0.70002  1.0000
  C  Sn37      1.0  0.87330  0.19756  0.77154  1.0000
  C  Sn38      1.0  0.85298  0.21472  0.79464  1.0000
  C   C235      1.0  0.83467  0.20226  0.74562  1.0000
  C   C236      1.0  0.83636  0.17307  0.67411  1.0000
  H   H77       1.0  0.85771  0.13358  0.59608  1.0000
  O  Te37      1.0  0.89184  0.20945  0.81943  1.0000
  O  Te38      1.0  0.85102  0.24391  0.86587  1.0000
  H   H78       1.0  0.82211  0.16359  0.63653  1.0000
  Mg  Mg19      1.0  0.88093  0.25024  0.91092  1.0000
  C   C237      1.0  0.16632  0.83482  0.61827  1.0000
  C   C238      1.0  0.17131  0.81105  0.71866  1.0000
  C  Sn39      1.0  0.15379  0.79622  0.84187  1.0000
  C  Sn40      1.0  0.13088  0.80539  0.86466  1.0000
  C   C239      1.0  0.12607  0.82918  0.76350  1.0000
  C   C240      1.0  0.14373  0.84388  0.64062  1.0000
  H   H79       1.0  0.17999  0.84619  0.52312  1.0000
  O  Te39      1.0  0.15907  0.77252  0.94112  1.0000
  O  Te40      1.0  0.11304  0.79094  0.98683  1.0000
  H   H80       1.0  0.13986  0.86226  0.56283  1.0000
  Mg  Mg20      1.0  0.16569  0.76178  0.09098  1.0000
  C   C241      1.0  0.05587  0.12759  0.74280  1.0000
  C   C242      1.0  0.07164  0.12128  0.83477  1.0000
  C  Sn41      1.0  0.07157  0.09278  0.91474  1.0000
  C  Sn42      1.0  0.05540  0.07023  0.90214  1.0000
  C   C243      1.0  0.03971  0.07677  0.80973  1.0000
  C   C244      1.0  0.03992  0.10536  0.73025  1.0000
  H   H81       1.0  0.05605  0.14971  0.68123  1.0000
  O  Te41      1.0  0.12427  0.08876  0.00617  1.0000
  O  Te42      1.0  0.05496  0.04156  0.98076  1.0000
  H   H82       1.0  0.02772  0.11024  0.65896  1.0000
  Mg  Mg21      1.0  0.11688  0.04627  0.09102  1.0000
  C   C245      1.0  0.93061  0.92074  0.92568  1.0000
  C   C246      1.0  0.95309  0.91451  0.83314  1.0000
  C  Sn43      1.0  0.95793  0.88974  0.72113  1.0000
  C  Sn44      1.0  0.93989  0.87091  0.70165  1.0000
  C   C247      1.0  0.91746  0.87734  0.79472  1.0000
  C   C248      1.0  0.91282  0.90218  0.90649  1.0000
  H   H83       1.0  0.96384  0.94188  0.01209  1.0000
  O  Te43      1.0  0.98048  0.88384  0.62971  1.0000
  O  Te44      1.0  0.94425  0.84601  0.59054  1.0000
  H   H84       1.0  0.89541  0.90701  0.97803  1.0000
  Mg  Mg22      1.0  0.97779  0.84726  0.49401  1.0000
  C   C249      1.0  0.94239  0.07133  0.60012  1.0000
  C   C250      1.0  0.96084  0.07962  0.66083  1.0000
  C  Sn45      1.0  0.96140  0.10827  0.73466  1.0000
  C  Sn46      1.0  0.94312  0.12896  0.74782  1.0000
  C   C251      1.0  0.92473  0.12044  0.68681  1.0000
  C   C252      1.0  0.92435  0.09172  0.61311  1.0000
  H   H85       1.0  0.94209  0.04910  0.54318  1.0000
  O  Te45      1.0  0.97996  0.11618  0.79461  1.0000
  O  Te46      1.0  0.94324  0.15773  0.82110  1.0000
  H   H86       1.0  0.91006  0.08531  0.56622  1.0000
  Mg  Mg23      1.0  0.97232  0.15800  0.88421  1.0000
  C   C253      1.0  0.06820  0.92120  0.58069  1.0000
  C   C254      1.0  0.04590  0.91426  0.67605  1.0000
  C  Sn47      1.0  0.04156  0.88920  0.78918  1.0000
  C  Sn48      1.0  0.05991  0.87080  0.80693  1.0000
  C   C255      1.0  0.08216  0.87794  0.71104  1.0000
  C   C256      1.0  0.08632  0.90306  0.59817  1.0000
  H   H87       1.0  0.07143  0.94065  0.49343  1.0000
  O  Te47      1.0  0.01917  0.88259  0.88343  1.0000
  O  Te48      1.0  0.05604  0.84562  0.91911  1.0000
  H   H88       1.0  0.10358  0.90844  0.52443  1.0000
  Mg  Mg24      1.0  0.05939  0.84778  0.01961  1.0000
  C   C257      1.0  0.65088  0.66271  0.63217  1.0000
  C   C258      1.0  0.62862  0.66810  0.73237  1.0000
  C  Sn49      1.0  0.62401  0.69253  0.84674  1.0000
  C  Sn50      1.0  0.64206  0.71190  0.86074  1.0000
  C   C259      1.0  0.66426  0.70633  0.75985  1.0000
  C   C260      1.0  0.66869  0.68180  0.64586  1.0000
  H   H89       1.0  0.65430  0.64374  0.54390  1.0000
  O  Te49      1.0  0.60168  0.69759  0.94593  1.0000
  O  Te50      1.0  0.63793  0.73650  0.97397  1.0000
  H   H90       1.0  0.68592  0.67765  0.56822  1.0000
  Mg  Mg25      1.0  0.64146  0.73595  0.08179  1.0000
  C   C261      1.0  0.36286  0.29175  0.82866  1.0000
  C   C262      1.0  0.37347  0.31901  0.75681  1.0000
  C  Sn51      1.0  0.36220  0.33953  0.67561  1.0000
  C  Sn52      1.0  0.33987  0.33257  0.66641  1.0000
  C   C263      1.0  0.32939  0.30525  0.73879  1.0000
  C   C264      1.0  0.34084  0.28487  0.81970  1.0000
  H   H91       1.0  0.37170  0.27598  0.89135  1.0000
  O  Te51      1.0  0.37306  0.36666  0.60444  1.0000
  O  Te52      1.0  0.32821  0.35268  0.58605  1.0000
  H   H92       1.0  0.33261  0.26377  0.87542  1.0000
  Mg  Mg26      1.0  0.35017  0.38676  0.50832  1.0000
  C   C265      1.0  0.36019  0.70580  0.63211  1.0000
  C   C266      1.0  0.33786  0.69824  0.72396  1.0000
  C  Sn53      1.0  0.33362  0.67348  0.83917  1.0000
  C  Sn54      1.0  0.35212  0.65602  0.86263  1.0000
  C   C267      1.0  0.37440  0.66379  0.77023  1.0000
  C   C268      1.0  0.37845  0.68860  0.65523  1.0000
  H   H93       1.0  0.36332  0.72501  0.54320  1.0000
  O  Te53      1.0  0.31121  0.66622  0.92984  1.0000
  O  Te54      1.0  0.34838  0.63117  0.97700  1.0000
  H   H94       1.0  0.39574  0.69447  0.58422  1.0000
  Mg  Mg27      1.0  0.35162  0.63219  0.07097  1.0000
  C   C269      1.0  0.64945  0.34856  0.85934  1.0000
  C   C270      1.0  0.63369  0.33698  0.77942  1.0000
  C  Sn55      1.0  0.63707  0.30832  0.70158  1.0000
  C  Sn56      1.0  0.65660  0.29098  0.70405  1.0000
  C   C271      1.0  0.67226  0.30275  0.78444  1.0000
  C   C272      1.0  0.66872  0.33146  0.86189  1.0000
  H   H95       1.0  0.64671  0.37076  0.91935  1.0000
  O  Te55      1.0  0.62116  0.29710  0.62224  1.0000
  O  Te56      1.0  0.66040  0.26227  0.62729  1.0000
  H   H96       1.0  0.68092  0.34041  0.92386  1.0000
  Mg  Mg28      1.0  0.63383  0.25679  0.53522  1.0000
  C   C273      1.0  0.55283  0.62628  0.79266  1.0000
  C   C274      1.0  0.57540  0.62228  0.69494  1.0000
  C  Sn57      1.0  0.58127  0.59753  0.58352  1.0000
  C  Sn58      1.0  0.56420  0.57644  0.56993  1.0000
  C   C275      1.0  0.54167  0.58065  0.66816  1.0000
  C   C276      1.0  0.53598  0.60550  0.77929  1.0000
  H   H97       1.0  0.54843  0.64551  0.87858  1.0000
  O  Te57      1.0  0.60390  0.59387  0.48687  1.0000
  O  Te58      1.0  0.56959  0.55151  0.45954  1.0000
  H   H98       1.0  0.51851  0.60860  0.85485  1.0000
  Mg  Mg29      1.0  0.60281  0.55629  0.35451  1.0000
  C   C277      1.0  0.45619  0.37392  0.77211  1.0000
  C   C278      1.0  0.46409  0.40251  0.70117  1.0000
  C  Sn59      1.0  0.45180  0.41921  0.60915  1.0000
  C  Sn60      1.0  0.43122  0.40702  0.58802  1.0000
  C   C279      1.0  0.42345  0.37842  0.65960  1.0000
  C   C280      1.0  0.43589  0.36189  0.75139  1.0000
  H   H99       1.0  0.46580  0.36114  0.84322  1.0000
  O  Te59      1.0  0.45995  0.44773  0.53906  1.0000
  O  Te60      1.0  0.41860  0.42324  0.49671  1.0000
  H   H100      1.0  0.42976  0.33977  0.80640  1.0000
  Mg  Mg30      1.0  0.43671  0.46113  0.42530  1.0000
  C   C281      1.0  0.43215  0.57209  0.93180  1.0000
  C   C282      1.0  0.45360  0.57575  0.81405  1.0000
  C  Sn61      1.0  0.45802  0.60075  0.70053  1.0000
  C  Sn62      1.0  0.44060  0.62246  0.70531  1.0000
  C   C283      1.0  0.41920  0.61861  0.82367  1.0000
  C   C284      1.0  0.41496  0.59350  0.93664  1.0000
  H   H101      1.0  0.46570  0.55459  0.01928  1.0000
  O  Te61      1.0  0.47954  0.60405  0.58367  1.0000
  O  Te62      1.0  0.44455  0.64767  0.59336  1.0000
  H   H102      1.0  0.43519  0.59259  0.02787  1.0000
  Mg  Mg31      1.0  0.47666  0.64220  0.45728  1.0000
  C   C285      1.0  0.57099  0.41769  0.90595  1.0000
  C   C286      1.0  0.57777  0.38778  0.85777  1.0000
  C  Sn63      1.0  0.56525  0.36992  0.77393  1.0000
  C  Sn64      1.0  0.54559  0.38230  0.73778  1.0000
  C   C287      1.0  0.53896  0.41225  0.78640  1.0000
  C   C288      1.0  0.55161  0.42992  0.87029  1.0000
  H   H103      1.0  0.58078  0.43137  0.97077  1.0000
  O  Te63      1.0  0.57226  0.34008  0.72674  1.0000
  O  Te64      1.0  0.53277  0.36495  0.65408  1.0000
  H   H104      1.0  0.54636  0.45308  0.90748  1.0000
  Mg  Mg32      1.0  0.54918  0.32546  0.61539  1.0000
