data_image0
_chemical_formula_structural       H104C256S8N32F16SnCSn2CSnTe4Mg2SnCSn2CSnTe4Mg2SnCSn2CSnTe4Mg2SnCSn2CSnTe4Mg2SnCSn2CSnTe4Mg2SnCSn2CSnTe4Mg2SnCSn2CSnTe4Mg2SnCSn2CSnTe4Mg2SnCSn2CSnTe4Mg2SnCSn2CSnTe4Mg2SnCSn2CSnTe4Mg2SnCSn2CSnTe4Mg2SnCSn2CSnTe4Mg2SnCSn2CSnTe4Mg2SnCSn2CSnTe4Mg2SnCSn2CSnTe4Mg2
_chemical_formula_sum              "H104 C288 S8 N32 F16 Sn64 Te64 Mg32"
_cell_length_a       61.0828
_cell_length_b       43.6998
_cell_length_c       8.09294
_cell_angle_alpha    89.4254
_cell_angle_beta     73.86
_cell_angle_gamma    90.0582

_symmetry_space_group_name_H-M    'P1'
_space_group_IT_number       1

loop_
  _space_group_symop_operation_xyz
  'x, y, z'

loop_
  _atom_site_type_symbol
  _atom_site_label
  _atom_site_symmetry_multiplicity
  _atom_site_fract_x
  _atom_site_fract_y
  _atom_site_fract_z
  _atom_site_occupancy
  H   H1        1.0  0.15308  0.23696  0.10479  1.0000
  H   H2        1.0  0.84672  0.23832  0.34494  1.0000
  H   H3        1.0  0.11631  0.21177  0.10970  1.0000
  H   H4        1.0  0.88266  0.21198  0.34702  1.0000
  H   H5        1.0  0.13451  0.13310  0.36600  1.0000
  H   H6        1.0  0.86294  0.13409  0.10073  1.0000
  H   H7        1.0  0.17193  0.15779  0.35569  1.0000
  H   H8        1.0  0.82623  0.15972  0.10536  1.0000
  H   H9        1.0  0.39838  0.33624  0.34154  1.0000
  H   H10       1.0  0.58733  0.66415  0.34695  1.0000
  H   H11       1.0  0.59817  0.33445  0.16366  1.0000
  H   H12       1.0  0.41129  0.66294  0.11221  1.0000
  H   H13       1.0  0.90072  0.91067  0.51719  1.0000
  H   H14       1.0  0.09732  0.91068  0.00093  1.0000
  H   H15       1.0  0.93630  0.93970  0.49824  1.0000
  H   H16       1.0  0.06224  0.94032  0.01538  1.0000
  H   H17       1.0  0.97319  0.87852  0.10646  1.0000
  H   H18       1.0  0.02423  0.87915  0.41131  1.0000
  H   H19       1.0  0.93846  0.84846  0.13453  1.0000
  H   H20       1.0  0.05853  0.84891  0.39075  1.0000
  H   H21       1.0  0.44241  0.46937  0.26342  1.0000
  H   H22       1.0  0.55553  0.52448  0.20795  1.0000
  H   H23       1.0  0.55509  0.46939  0.21626  1.0000
  H   H24       1.0  0.44209  0.52449  0.27321  1.0000
  H   H25       1.0  0.33725  0.26806  0.35382  1.0000
  H   H26       1.0  0.37381  0.29127  0.36948  1.0000
  H   H27       1.0  0.36093  0.37077  0.09348  1.0000
  H   H28       1.0  0.32341  0.34861  0.08768  1.0000
  H   H29       1.0  0.90678  0.83514  0.12981  1.0000
  H   H30       1.0  0.09324  0.16530  0.14505  1.0000
  H   H31       1.0  0.08983  0.83420  0.39464  1.0000
  H   H32       1.0  0.90396  0.16461  0.32756  1.0000
  H   H33       1.0  0.59712  0.58609  0.97122  1.0000
  H   H34       1.0  0.41500  0.42098  0.01563  1.0000
  H   H35       1.0  0.58156  0.42085  0.46927  1.0000
  H   H36       1.0  0.56247  0.55501  0.98804  1.0000
  H   H37       1.0  0.44955  0.44857  0.03373  1.0000
  H   H38       1.0  0.54730  0.44816  0.44436  1.0000
  H   H39       1.0  0.52391  0.61356  0.38806  1.0000
  H   H40       1.0  0.46725  0.37212  0.30936  1.0000
  H   H41       1.0  0.53042  0.37198  0.16925  1.0000
  H   H42       1.0  0.55768  0.64497  0.36561  1.0000
  H   H43       1.0  0.43429  0.34379  0.27587  1.0000
  H   H44       1.0  0.56310  0.34394  0.20901  1.0000
  H   H45       1.0  0.94271  0.96797  0.26636  1.0000
  H   H46       1.0  0.05438  0.02447  0.24605  1.0000
  H   H47       1.0  0.05474  0.96937  0.24374  1.0000
  H   H48       1.0  0.94265  0.02310  0.25785  1.0000
  H   H49       1.0  0.99832  0.10157  0.24170  1.0000
  H   H50       1.0  0.99906  0.89078  0.25712  1.0000
  H   H51       1.0  0.49908  0.60246  0.23713  1.0000
  H   H52       1.0  0.49879  0.39155  0.23605  1.0000
  H   H53       1.0  0.40423  0.32850  0.83977  1.0000
  H   H54       1.0  0.58734  0.66374  0.86373  1.0000
  H   H55       1.0  0.60095  0.33448  0.65827  1.0000
  H   H56       1.0  0.40922  0.65666  0.62680  1.0000
  H   H57       1.0  0.90115  0.91079  0.01211  1.0000
  H   H58       1.0  0.09767  0.91199  0.49070  1.0000
  H   H59       1.0  0.93637  0.94054  0.99463  1.0000
  H   H60       1.0  0.06200  0.94086  0.51152  1.0000
  H   H61       1.0  0.97411  0.87956  0.60502  1.0000
  H   H62       1.0  0.02561  0.87874  0.90866  1.0000
  H   H63       1.0  0.93969  0.84920  0.62936  1.0000
  H   H64       1.0  0.06044  0.84890  0.87921  1.0000
  H   H65       1.0  0.44550  0.46728  0.75306  1.0000
  H   H66       1.0  0.55772  0.52484  0.70715  1.0000
  H   H67       1.0  0.55774  0.46979  0.72084  1.0000
  H   H68       1.0  0.44466  0.52243  0.75929  1.0000
  H   H69       1.0  0.64230  0.73253  0.94487  1.0000
  H   H70       1.0  0.34097  0.26320  0.86465  1.0000
  H   H71       1.0  0.35397  0.72558  0.56401  1.0000
  H   H72       1.0  0.60652  0.70560  0.94211  1.0000
  H   H73       1.0  0.37814  0.28492  0.87564  1.0000
  H   H74       1.0  0.38982  0.69794  0.55543  1.0000
  H   H75       1.0  0.64479  0.64216  0.56945  1.0000
  H   H76       1.0  0.36510  0.36648  0.61605  1.0000
  H   H77       1.0  0.35288  0.63475  0.94395  1.0000
  H   H78       1.0  0.68096  0.66847  0.57575  1.0000
  H   H79       1.0  0.32754  0.34517  0.60884  1.0000
  H   H80       1.0  0.31649  0.66147  0.94842  1.0000
  H   H81       1.0  0.90797  0.83411  0.62944  1.0000
  H   H82       1.0  0.09730  0.16212  0.64576  1.0000
  H   H83       1.0  0.09270  0.83740  0.88883  1.0000
  H   H84       1.0  0.90736  0.16730  0.82671  1.0000
  H   H85       1.0  0.41859  0.41534  0.52318  1.0000
  H   H86       1.0  0.40269  0.58141  0.02133  1.0000
  H   H87       1.0  0.58576  0.42037  0.96656  1.0000
  H   H88       1.0  0.45272  0.44444  0.53672  1.0000
  H   H89       1.0  0.43793  0.55088  0.99061  1.0000
  H   H90       1.0  0.55136  0.44816  0.94732  1.0000
  H   H91       1.0  0.47089  0.37095  0.83052  1.0000
  H   H92       1.0  0.47443  0.61321  0.59463  1.0000
  H   H93       1.0  0.53288  0.37200  0.68039  1.0000
  H   H94       1.0  0.43847  0.34117  0.80245  1.0000
  H   H95       1.0  0.44015  0.64424  0.63223  1.0000
  H   H96       1.0  0.56558  0.34344  0.71597  1.0000
  H   H97       1.0  0.94391  0.96986  0.76608  1.0000
  H   H98       1.0  0.05618  0.02347  0.75100  1.0000
  H   H99       1.0  0.05586  0.96840  0.74644  1.0000
  H   H100      1.0  0.94459  0.02499  0.76058  1.0000
  H   H101      1.0  0.00096  0.10204  0.75592  1.0000
  H   H102      1.0  0.99934  0.89116  0.75723  1.0000
  H   H103      1.0  0.49997  0.60152  0.73814  1.0000
  H   H104      1.0  0.50184  0.39074  0.75351  1.0000
  C   C1        1.0  0.26913  0.26591  0.20976  1.0000
  C   C2        1.0  0.72314  0.73774  0.28467  1.0000
  C   C3        1.0  0.72976  0.27085  0.27730  1.0000
  C   C4        1.0  0.27513  0.73976  0.22175  1.0000
  C   C5        1.0  0.26330  0.23581  0.28160  1.0000
  C   C6        1.0  0.72492  0.76565  0.37243  1.0000
  C   C7        1.0  0.73454  0.24072  0.20695  1.0000
  C   C8        1.0  0.27126  0.76728  0.13573  1.0000
  C   C9        1.0  0.24164  0.22180  0.28746  1.0000
  C   C10       1.0  0.74688  0.77824  0.37113  1.0000
  C   C11       1.0  0.75627  0.22609  0.19106  1.0000
  C   C12       1.0  0.24842  0.77777  0.14783  1.0000
  C   C13       1.0  0.28966  0.28038  0.20812  1.0000
  C   C14       1.0  0.70250  0.72503  0.27609  1.0000
  C   C15       1.0  0.70910  0.28547  0.28555  1.0000
  C   C16       1.0  0.29668  0.72855  0.21791  1.0000
  C   C17       1.0  0.30732  0.29308  0.21202  1.0000
  C   C18       1.0  0.68500  0.71325  0.26080  1.0000
  C   C19       1.0  0.69102  0.29713  0.28302  1.0000
  C   C20       1.0  0.31470  0.71704  0.22313  1.0000
  C   C21       1.0  0.32799  0.30664  0.21890  1.0000
  C   C22       1.0  0.14883  0.21439  0.16276  1.0000
  C   C23       1.0  0.85039  0.21562  0.29087  1.0000
  C   C24       1.0  0.12832  0.20026  0.16649  1.0000
  C   C25       1.0  0.87049  0.20082  0.29108  1.0000
  C   C26       1.0  0.12291  0.17092  0.24096  1.0000
  C   C27       1.0  0.87520  0.17126  0.22258  1.0000
  C   C28       1.0  0.13885  0.15577  0.30949  1.0000
  C   C29       1.0  0.85909  0.15685  0.15372  1.0000
  C   C30       1.0  0.15954  0.16940  0.30349  1.0000
  C   C31       1.0  0.83874  0.17108  0.15661  1.0000
  C   C32       1.0  0.39136  0.34569  0.24046  1.0000
  C   C33       1.0  0.60236  0.65466  0.25343  1.0000
  C   C34       1.0  0.60554  0.34551  0.25747  1.0000
  C   C35       1.0  0.39654  0.65534  0.21679  1.0000
  C   C36       1.0  0.42123  0.38128  0.15405  1.0000
  C   C37       1.0  0.58029  0.61722  0.16875  1.0000
  C   C38       1.0  0.57578  0.38127  0.33197  1.0000
  C   C39       1.0  0.91668  0.90414  0.42578  1.0000
  C   C40       1.0  0.08125  0.90426  0.09258  1.0000
  C   C41       1.0  0.93658  0.92061  0.41250  1.0000
  C   C42       1.0  0.06157  0.92109  0.10306  1.0000
  C   C43       1.0  0.95731  0.91240  0.29374  1.0000
  C   C44       1.0  0.04062  0.91301  0.22098  1.0000
  C   C45       1.0  0.95741  0.88551  0.19870  1.0000
  C   C46       1.0  0.04016  0.88606  0.31935  1.0000
  C   C47       1.0  0.93764  0.86865  0.21345  1.0000
  C   C48       1.0  0.05970  0.86901  0.30837  1.0000
  C   C49       1.0  0.47955  0.43150  0.21431  1.0000
  C   C50       1.0  0.51979  0.56245  0.21661  1.0000
  C   C51       1.0  0.51797  0.43136  0.25980  1.0000
  C   C52       1.0  0.47824  0.56250  0.25808  1.0000
  C   C53       1.0  0.01855  0.02961  0.25887  1.0000
  C   C54       1.0  0.97826  0.96326  0.26150  1.0000
  C   C55       1.0  0.97851  0.02904  0.23985  1.0000
  C   C56       1.0  0.01938  0.96373  0.24569  1.0000
  C   C57       1.0  0.45832  0.48137  0.25179  1.0000
  C   C58       1.0  0.53963  0.51257  0.21770  1.0000
  C   C59       1.0  0.53926  0.48133  0.22563  1.0000
  C   C60       1.0  0.45805  0.51261  0.26026  1.0000
  C   C61       1.0  0.76781  0.76363  0.28088  1.0000
  C   C62       1.0  0.22514  0.23742  0.22078  1.0000
  C   C63       1.0  0.22857  0.76112  0.24482  1.0000
  C   C64       1.0  0.77386  0.24087  0.24867  1.0000
  C   C65       1.0  0.76525  0.73645  0.19858  1.0000
  C   C66       1.0  0.23175  0.26627  0.14760  1.0000
  C   C67       1.0  0.23318  0.73432  0.32447  1.0000
  C   C68       1.0  0.76829  0.26978  0.31987  1.0000
  C   C69       1.0  0.74383  0.72379  0.20376  1.0000
  C   C70       1.0  0.25289  0.27991  0.14226  1.0000
  C   C71       1.0  0.25547  0.72427  0.31387  1.0000
  C   C72       1.0  0.74728  0.28426  0.33192  1.0000
  C   C73       1.0  0.78905  0.77608  0.27693  1.0000
  C   C74       1.0  0.20415  0.22436  0.22440  1.0000
  C   C75       1.0  0.20663  0.77198  0.25604  1.0000
  C   C76       1.0  0.79489  0.22728  0.23795  1.0000
  C   C77       1.0  0.80725  0.78789  0.27654  1.0000
  C   C78       1.0  0.18581  0.21282  0.22619  1.0000
  C   C79       1.0  0.18845  0.78401  0.25840  1.0000
  C   C80       1.0  0.81319  0.21514  0.23164  1.0000
  C   C81       1.0  0.16485  0.19904  0.23023  1.0000
  C   C82       1.0  0.83399  0.20079  0.22610  1.0000
  C   C83       1.0  0.34256  0.29045  0.29693  1.0000
  C   C84       1.0  0.36300  0.30347  0.30443  1.0000
  C   C85       1.0  0.36992  0.33238  0.22928  1.0000
  C   C86       1.0  0.35542  0.34843  0.15057  1.0000
  C   C87       1.0  0.33464  0.33608  0.14725  1.0000
  C   C88       1.0  0.89267  0.84369  0.23515  1.0000
  C   C89       1.0  0.10160  0.15610  0.23887  1.0000
  C   C90       1.0  0.10423  0.84291  0.29056  1.0000
  C   C91       1.0  0.89579  0.15549  0.23314  1.0000
  C   C92       1.0  0.91659  0.87833  0.32320  1.0000
  C   C93       1.0  0.08095  0.87836  0.19822  1.0000
  C   C94       1.0  0.58096  0.59159  0.06342  1.0000
  C   C95       1.0  0.42633  0.41084  0.08340  1.0000
  C   C96       1.0  0.57043  0.41064  0.40072  1.0000
  C   C97       1.0  0.56157  0.57399  0.07549  1.0000
  C   C98       1.0  0.44561  0.42637  0.09609  1.0000
  C   C99       1.0  0.55130  0.42607  0.38392  1.0000
  C   C100      1.0  0.54062  0.58105  0.19495  1.0000
  C   C101      1.0  0.46056  0.41368  0.18321  1.0000
  C   C102      1.0  0.53672  0.41343  0.29446  1.0000
  C   C103      1.0  0.53981  0.60762  0.29399  1.0000
  C   C104      1.0  0.45618  0.38310  0.24216  1.0000
  C   C105      1.0  0.54119  0.38293  0.23832  1.0000
  C   C106      1.0  0.55905  0.62539  0.28153  1.0000
  C   C107      1.0  0.43718  0.36712  0.22640  1.0000
  C   C108      1.0  0.56008  0.36711  0.25769  1.0000
  C   C109      1.0  0.97832  0.93066  0.27113  1.0000
  C   C110      1.0  0.01754  0.06228  0.27065  1.0000
  C   C111      1.0  0.01961  0.93110  0.23955  1.0000
  C   C112      1.0  0.97918  0.06169  0.22207  1.0000
  C   C113      1.0  0.51969  0.52985  0.22335  1.0000
  C   C114      1.0  0.47868  0.46411  0.23211  1.0000
  C   C115      1.0  0.47812  0.52990  0.25200  1.0000
  C   C116      1.0  0.51893  0.46404  0.24236  1.0000
  C   C117      1.0  0.95837  0.98018  0.26070  1.0000
  C   C118      1.0  0.03867  0.01247  0.25108  1.0000
  C   C119      1.0  0.03904  0.98121  0.24627  1.0000
  C   C120      1.0  0.95847  0.01142  0.25231  1.0000
  C   C121      1.0  0.99835  0.07677  0.24443  1.0000
  C   C122      1.0  0.99901  0.91567  0.25582  1.0000
  C   C123      1.0  0.99862  0.01296  0.25026  1.0000
  C   C124      1.0  0.99876  0.97999  0.25236  1.0000
  C   C125      1.0  0.49906  0.57757  0.23709  1.0000
  C   C126      1.0  0.49878  0.41640  0.23647  1.0000
  C   C127      1.0  0.49889  0.51344  0.23727  1.0000
  C   C128      1.0  0.49884  0.48049  0.23705  1.0000
  C   C129      1.0  0.27210  0.26467  0.72263  1.0000
  C   C130      1.0  0.72316  0.73941  0.78885  1.0000
  C   C131      1.0  0.73172  0.26780  0.77748  1.0000
  C   C132      1.0  0.27481  0.73588  0.72804  1.0000
  C   C133      1.0  0.26630  0.23394  0.78558  1.0000
  C   C134      1.0  0.72561  0.76714  0.87667  1.0000
  C   C135      1.0  0.73709  0.23824  0.70020  1.0000
  C   C136      1.0  0.27373  0.76415  0.63831  1.0000
  C   C137      1.0  0.24443  0.22056  0.79191  1.0000
  C   C138      1.0  0.74788  0.77885  0.87358  1.0000
  C   C139      1.0  0.75892  0.22400  0.68410  1.0000
  C   C140      1.0  0.25210  0.77760  0.63807  1.0000
  C   C141      1.0  0.29289  0.27818  0.72233  1.0000
  C   C142      1.0  0.70213  0.72765  0.78252  1.0000
  C   C143      1.0  0.71087  0.28205  0.78866  1.0000
  C   C144      1.0  0.29515  0.72234  0.73725  1.0000
  C   C145      1.0  0.31093  0.28975  0.72803  1.0000
  C   C146      1.0  0.68431  0.71618  0.77086  1.0000
  C   C147      1.0  0.69283  0.29388  0.78592  1.0000
  C   C148      1.0  0.31244  0.70969  0.75096  1.0000
  C   C149      1.0  0.33180  0.30253  0.73552  1.0000
  C   C150      1.0  0.66397  0.70220  0.76115  1.0000
  C   C151      1.0  0.33282  0.69532  0.75676  1.0000
  C   C152      1.0  0.39613  0.33978  0.75010  1.0000
  C   C153      1.0  0.60222  0.65635  0.76097  1.0000
  C   C154      1.0  0.60840  0.34463  0.75424  1.0000
  C   C155      1.0  0.39510  0.64938  0.73711  1.0000
  C   C156      1.0  0.42515  0.37698  0.66941  1.0000
  C   C157      1.0  0.57908  0.38079  0.83334  1.0000
  C   C158      1.0  0.41845  0.61415  0.82524  1.0000
  C   C159      1.0  0.91723  0.90446  0.92152  1.0000
  C   C160      1.0  0.08180  0.90525  0.58378  1.0000
  C   C161      1.0  0.93697  0.92129  0.90942  1.0000
  C   C162      1.0  0.06185  0.92156  0.59770  1.0000
  C   C163      1.0  0.95790  0.91327  0.79254  1.0000
  C   C164      1.0  0.04125  0.91297  0.71835  1.0000
  C   C165      1.0  0.95825  0.88636  0.69692  1.0000
  C   C166      1.0  0.04130  0.88595  0.81473  1.0000
  C   C167      1.0  0.93862  0.86927  0.70968  1.0000
  C   C168      1.0  0.06114  0.86928  0.79960  1.0000
  C   C169      1.0  0.48256  0.43000  0.72383  1.0000
  C   C170      1.0  0.52133  0.56211  0.71741  1.0000
  C   C171      1.0  0.52094  0.43106  0.77000  1.0000
  C   C172      1.0  0.47982  0.56095  0.75837  1.0000
  C   C173      1.0  0.02036  0.02945  0.76760  1.0000
  C   C174      1.0  0.97925  0.96410  0.76505  1.0000
  C   C175      1.0  0.98040  0.03000  0.74760  1.0000
  C   C176      1.0  0.02034  0.96367  0.75044  1.0000
  C   C177      1.0  0.46115  0.47955  0.74629  1.0000
  C   C178      1.0  0.54186  0.51265  0.71956  1.0000
  C   C179      1.0  0.54178  0.48140  0.73042  1.0000
  C   C180      1.0  0.46055  0.51078  0.75292  1.0000
  C   C181      1.0  0.76839  0.76290  0.78724  1.0000
  C   C182      1.0  0.22771  0.23723  0.73214  1.0000
  C   C183      1.0  0.23079  0.76335  0.72701  1.0000
  C   C184      1.0  0.77632  0.23916  0.74171  1.0000
  C   C185      1.0  0.76520  0.73541  0.70954  1.0000
  C   C186      1.0  0.23412  0.26683  0.67026  1.0000
  C   C187      1.0  0.23272  0.73553  0.80845  1.0000
  C   C188      1.0  0.77037  0.26770  0.81699  1.0000
  C   C189      1.0  0.74351  0.72457  0.70632  1.0000
  C   C190      1.0  0.25528  0.28008  0.66747  1.0000
  C   C191      1.0  0.25379  0.72239  0.80839  1.0000
  C   C192      1.0  0.74877  0.28107  0.83844  1.0000
  C   C193      1.0  0.78995  0.77453  0.78184  1.0000
  C   C194      1.0  0.20660  0.22444  0.73590  1.0000
  C   C195      1.0  0.20982  0.77663  0.73063  1.0000
  C   C196      1.0  0.79743  0.22584  0.73031  1.0000
  C   C197      1.0  0.80835  0.78619  0.77745  1.0000
  C   C198      1.0  0.18848  0.21238  0.73797  1.0000
  C   C199      1.0  0.19185  0.78914  0.73201  1.0000
  C   C200      1.0  0.81571  0.21407  0.72720  1.0000
  C   C201      1.0  0.64269  0.71295  0.86236  1.0000
  C   C202      1.0  0.34647  0.28565  0.80955  1.0000
  C   C203      1.0  0.35382  0.70594  0.64784  1.0000
  C   C204      1.0  0.62282  0.69775  0.86043  1.0000
  C   C205      1.0  0.36727  0.29790  0.81444  1.0000
  C   C206      1.0  0.37376  0.69049  0.64378  1.0000
  C   C207      1.0  0.62339  0.67199  0.75611  1.0000
  C   C208      1.0  0.37435  0.32704  0.74291  1.0000
  C   C209      1.0  0.37363  0.66471  0.74966  1.0000
  C   C210      1.0  0.64459  0.66179  0.65155  1.0000
  C   C211      1.0  0.35961  0.34392  0.67002  1.0000
  C   C212      1.0  0.35277  0.65453  0.86150  1.0000
  C   C213      1.0  0.66457  0.67643  0.65494  1.0000
  C   C214      1.0  0.33870  0.33210  0.66669  1.0000
  C   C215      1.0  0.33266  0.66942  0.86401  1.0000
  C   C216      1.0  0.89371  0.84326  0.73161  1.0000
  C   C217      1.0  0.10535  0.15355  0.74296  1.0000
  C   C218      1.0  0.10651  0.84556  0.77869  1.0000
  C   C219      1.0  0.89891  0.15732  0.73624  1.0000
  C   C220      1.0  0.91741  0.87861  0.81861  1.0000
  C   C221      1.0  0.08209  0.87936  0.68810  1.0000
  C   C222      1.0  0.43005  0.40614  0.59268  1.0000
  C   C223      1.0  0.41851  0.58781  0.92656  1.0000
  C   C224      1.0  0.57427  0.41036  0.90043  1.0000
  C   C225      1.0  0.44905  0.42259  0.60338  1.0000
  C   C226      1.0  0.43820  0.57060  0.90703  1.0000
  C   C227      1.0  0.55508  0.42602  0.88686  1.0000
  C   C228      1.0  0.46392  0.41120  0.69465  1.0000
  C   C229      1.0  0.45871  0.57893  0.78468  1.0000
  C   C230      1.0  0.53996  0.41342  0.80189  1.0000
  C   C231      1.0  0.45989  0.38087  0.75928  1.0000
  C   C232      1.0  0.45885  0.60627  0.69042  1.0000
  C   C233      1.0  0.54410  0.38286  0.74597  1.0000
  C   C234      1.0  0.44115  0.36405  0.74614  1.0000
  C   C235      1.0  0.43931  0.62367  0.71047  1.0000
  C   C236      1.0  0.56297  0.36676  0.76282  1.0000
  C   C237      1.0  0.97894  0.93145  0.77274  1.0000
  C   C238      1.0  0.01988  0.06212  0.78113  1.0000
  C   C239      1.0  0.02023  0.93110  0.74144  1.0000
  C   C240      1.0  0.98157  0.06267  0.73222  1.0000
  C   C241      1.0  0.52171  0.52949  0.72497  1.0000
  C   C242      1.0  0.48147  0.46269  0.73515  1.0000
  C   C243      1.0  0.48025  0.52841  0.75042  1.0000
  C   C244      1.0  0.52159  0.46368  0.74968  1.0000
  C   C245      1.0  0.95967  0.98162  0.76304  1.0000
  C   C246      1.0  0.04030  0.01183  0.75733  1.0000
  C   C247      1.0  0.04025  0.98060  0.75112  1.0000
  C   C248      1.0  0.96021  0.01289  0.75639  1.0000
  C   C249      1.0  0.00083  0.07723  0.75662  1.0000
  C   C250      1.0  0.99950  0.91606  0.75732  1.0000
  C   C251      1.0  0.00021  0.01335  0.75833  1.0000
  C   C252      1.0  0.99991  0.98038  0.75837  1.0000
  C   C253      1.0  0.50036  0.57664  0.73783  1.0000
  C   C254      1.0  0.50180  0.41558  0.74961  1.0000
  C   C255      1.0  0.50114  0.51252  0.73871  1.0000
  C   C256      1.0  0.50139  0.47957  0.74118  1.0000
  S   S1        1.0  0.27447  0.81355  0.97227  1.0000
  S   S2        1.0  0.73339  0.19167  0.08285  1.0000
  S   S3        1.0  0.71828  0.81163  0.53417  1.0000
  S   S4        1.0  0.26269  0.18603  0.40610  1.0000
  S   S5        1.0  0.28156  0.81047  0.47429  1.0000
  S   S6        1.0  0.73644  0.18915  0.57525  1.0000
  S   S7        1.0  0.72020  0.81355  0.03525  1.0000
  S   S8        1.0  0.26529  0.18356  0.90436  1.0000
  N   N1        1.0  0.40092  0.36811  0.14030  1.0000
  N   N2        1.0  0.60116  0.63185  0.15519  1.0000
  N   N3        1.0  0.59616  0.36869  0.34856  1.0000
  N   N4        1.0  0.39781  0.63381  0.32503  1.0000
  N   N5        1.0  0.89525  0.86476  0.33980  1.0000
  N   N6        1.0  0.09369  0.13274  0.33742  1.0000
  N   N7        1.0  0.10209  0.86440  0.18449  1.0000
  N   N8        1.0  0.90325  0.13150  0.14209  1.0000
  N   N9        1.0  0.24790  0.80402  0.06031  1.0000
  N   N10       1.0  0.75786  0.19805  0.12122  1.0000
  N   N11       1.0  0.74547  0.80457  0.45869  1.0000
  N   N12       1.0  0.23909  0.19337  0.35644  1.0000
  N   N13       1.0  0.28772  0.78560  0.03883  1.0000
  N   N14       1.0  0.71992  0.22347  0.14973  1.0000
  N   N15       1.0  0.70718  0.78249  0.46164  1.0000
  N   N16       1.0  0.27692  0.21780  0.34592  1.0000
  N   N17       1.0  0.40479  0.36359  0.65828  1.0000
  N   N18       1.0  0.60121  0.63491  0.65373  1.0000
  N   N19       1.0  0.59930  0.36760  0.84832  1.0000
  N   N20       1.0  0.39735  0.62853  0.84611  1.0000
  N   N21       1.0  0.89615  0.86489  0.83362  1.0000
  N   N22       1.0  0.09720  0.13055  0.84370  1.0000
  N   N23       1.0  0.10352  0.86610  0.67052  1.0000
  N   N24       1.0  0.90638  0.13307  0.64749  1.0000
  N   N25       1.0  0.25419  0.80420  0.54915  1.0000
  N   N26       1.0  0.76080  0.19593  0.61436  1.0000
  N   N27       1.0  0.74718  0.80529  0.95917  1.0000
  N   N28       1.0  0.24163  0.19191  0.85770  1.0000
  N   N29       1.0  0.29190  0.78065  0.54900  1.0000
  N   N30       1.0  0.72269  0.22078  0.64170  1.0000
  N   N31       1.0  0.70832  0.78481  0.96533  1.0000
  N   N32       1.0  0.27987  0.21514  0.84584  1.0000
  F   F1        1.0  0.78372  0.72113  0.10817  1.0000
  F   F2        1.0  0.21758  0.28188  0.07553  1.0000
  F   F3        1.0  0.21603  0.71660  0.41733  1.0000
  F   F4        1.0  0.78349  0.28486  0.38296  1.0000
  F   F5        1.0  0.74356  0.69691  0.12407  1.0000
  F   F6        1.0  0.25752  0.30768  0.06674  1.0000
  F   F7        1.0  0.25754  0.69838  0.40025  1.0000
  F   F8        1.0  0.74453  0.31241  0.40025  1.0000
  F   F9        1.0  0.78349  0.71824  0.63293  1.0000
  F   F10       1.0  0.21978  0.28435  0.60909  1.0000
  F   F11       1.0  0.21395  0.71970  0.89224  1.0000
  F   F12       1.0  0.78571  0.28338  0.87535  1.0000
  F   F13       1.0  0.74254  0.69871  0.61770  1.0000
  F   F14       1.0  0.25873  0.30912  0.60839  1.0000
  F   F15       1.0  0.25322  0.69547  0.89247  1.0000
  F   F16       1.0  0.74463  0.30769  0.92422  1.0000
  C  Sn1       1.0  0.16442  0.83542  0.20119  1.0000
  C   C257      1.0  0.16777  0.80843  0.28486  1.0000
  C  Sn2       1.0  0.14945  0.78891  0.35819  1.0000
  C  Sn3       1.0  0.12731  0.79651  0.34759  1.0000
  C   C258      1.0  0.12396  0.82348  0.26394  1.0000
  C  Sn4       1.0  0.14227  0.84302  0.19059  1.0000
  O  Te1       1.0  0.18298  0.85459  0.12880  1.0000
  O  Te2       1.0  0.15323  0.76206  0.44122  1.0000
  O  Te3       1.0  0.10874  0.77731  0.42007  1.0000
  O  Te4       1.0  0.13851  0.86985  0.10757  1.0000
  Mg  Mg1       1.0  0.12251  0.74332  0.51962  1.0000
  Mg  Mg2       1.0  0.16922  0.88860  0.02906  1.0000
  C  Sn5       1.0  0.84663  0.83473  0.90153  1.0000
  C   C259      1.0  0.86826  0.82622  0.80125  1.0000
  C  Sn6       1.0  0.87059  0.80549  0.66722  1.0000
  C  Sn7       1.0  0.85090  0.79303  0.63261  1.0000
  C   C260      1.0  0.82929  0.80154  0.73284  1.0000
  C  Sn8       1.0  0.82694  0.82226  0.86693  1.0000
  O  Te5       1.0  0.88154  0.85740  0.03487  1.0000
  O  Te6       1.0  0.89239  0.79733  0.56877  1.0000
  O  Te7       1.0  0.85284  0.77225  0.49916  1.0000
  O  Te8       1.0  0.80515  0.83043  0.96532  1.0000
  Mg  Mg3       1.0  0.88620  0.76822  0.40112  1.0000
  Mg  Mg4       1.0  0.84816  0.86145  0.13293  1.0000
  C  Sn9       1.0  0.15314  0.83601  0.59929  1.0000
  C   C261      1.0  0.13173  0.82818  0.70783  1.0000
  C  Sn10      1.0  0.12987  0.80881  0.84944  1.0000
  C  Sn11      1.0  0.14983  0.79702  0.88336  1.0000
  C   C262      1.0  0.17123  0.80485  0.77489  1.0000
  C  Sn12      1.0  0.17310  0.82422  0.63321  1.0000
  O  Te9       1.0  0.15459  0.85541  0.45847  1.0000
  O  Te10      1.0  0.10828  0.80130  0.95607  1.0000
  O  Te11      1.0  0.18520  0.77951  0.02433  1.0000
  O  Te12      1.0  0.19467  0.83173  0.52664  1.0000
  Mg  Mg5       1.0  0.15196  0.77595  0.13201  1.0000
  Mg  Mg6       1.0  0.18784  0.85900  0.35073  1.0000
  C  Sn13      1.0  0.94378  0.07435  0.05297  1.0000
  C   C263      1.0  0.96121  0.08244  0.12553  1.0000
  C  Sn14      1.0  0.95871  0.10758  0.23438  1.0000
  C  Sn15      1.0  0.93837  0.12499  0.27158  1.0000
  C   C264      1.0  0.92096  0.11690  0.19907  1.0000
  C  Sn16      1.0  0.92344  0.09177  0.09018  1.0000
  O  Te13      1.0  0.90981  0.04722  0.94452  1.0000
  O  Te14      1.0  0.97637  0.11522  0.30534  1.0000
  O  Te15      1.0  0.93553  0.15023  0.38013  1.0000
  O  Te16      1.0  0.90580  0.08412  0.01927  1.0000
  Mg  Mg7       1.0  0.96441  0.15155  0.44559  1.0000
  Mg  Mg8       1.0  0.88090  0.04588  0.87908  1.0000
  C  Sn17      1.0  0.86576  0.20289  0.84658  1.0000
  C   C265      1.0  0.87386  0.17423  0.78267  1.0000
  C  Sn18      1.0  0.86399  0.15888  0.67056  1.0000
  C  Sn19      1.0  0.84566  0.17248  0.62120  1.0000
  C   C266      1.0  0.83758  0.20113  0.68506  1.0000
  C  Sn20      1.0  0.84743  0.21649  0.79721  1.0000
  O  Te17      1.0  0.87588  0.21782  0.95850  1.0000
  O  Te18      1.0  0.87237  0.13024  0.60841  1.0000
  O  Te19      1.0  0.83554  0.15752  0.50919  1.0000
  O  Te20      1.0  0.83906  0.24511  0.85932  1.0000
  Mg  Mg9       1.0  0.85296  0.11894  0.45900  1.0000
  Mg  Mg10      1.0  0.89529  0.25835  0.00866  1.0000
  C  Sn21      1.0  0.43016  0.57169  0.37522  1.0000
  C   C267      1.0  0.45242  0.57651  0.27224  1.0000
  C  Sn22      1.0  0.45894  0.60495  0.19353  1.0000
  C  Sn23      1.0  0.44288  0.62909  0.21834  1.0000
  C   C268      1.0  0.42064  0.62427  0.32128  1.0000
  C  Sn24      1.0  0.41410  0.59583  0.40003  1.0000
  O  Te21      1.0  0.42402  0.54307  0.45266  1.0000
  O  Te22      1.0  0.48128  0.60922  0.09110  1.0000
  O  Te23      1.0  0.44904  0.65773  0.14078  1.0000
  O  Te24      1.0  0.39178  0.59156  0.50242  1.0000
  Mg  Mg11      1.0  0.48148  0.65232  0.01297  1.0000
  Mg  Mg12      1.0  0.39156  0.54847  0.58068  1.0000
  C  Sn25      1.0  0.37358  0.70769  0.15451  1.0000
  C   C269      1.0  0.37584  0.68072  0.24251  1.0000
  C  Sn26      1.0  0.35680  0.66245  0.31681  1.0000
  C  Sn27      1.0  0.33505  0.67130  0.30279  1.0000
  C   C270      1.0  0.33280  0.69825  0.21482  1.0000
  C  Sn28      1.0  0.35182  0.71654  0.14049  1.0000
  O  Te25      1.0  0.39284  0.72561  0.08122  1.0000
  O  Te26      1.0  0.35948  0.63560  0.40420  1.0000
  O  Te27      1.0  0.31578  0.65336  0.37618  1.0000
  O  Te28      1.0  0.34915  0.74338  0.05312  1.0000
  Mg  Mg13      1.0  0.32812  0.61883  0.48217  1.0000
  Mg  Mg14      1.0  0.34366  0.75825  0.97503  1.0000
  C  Sn29      1.0  0.04634  0.11444  0.19235  1.0000
  C   C271      1.0  0.04054  0.08462  0.25266  1.0000
  C  Sn30      1.0  0.04981  0.07170  0.37666  1.0000
  C  Sn31      1.0  0.06519  0.08896  0.44182  1.0000
  C   C272      1.0  0.07098  0.11877  0.38153  1.0000
  C  Sn32      1.0  0.06172  0.13171  0.25751  1.0000
  O  Te29      1.0  0.03687  0.12690  0.06836  1.0000
  O  Te30      1.0  0.04376  0.04183  0.43493  1.0000
  O  Te31      1.0  0.07466  0.07648  0.56590  1.0000
  O  Te32      1.0  0.06776  0.16155  0.19926  1.0000
  Mg  Mg15      1.0  0.06117  0.03493  0.60491  1.0000
  Mg  Mg16      1.0  0.05036  0.16849  0.02937  1.0000
  C  Sn33      1.0  0.56937  0.57213  0.60600  1.0000
  C   C273      1.0  0.54693  0.57670  0.70491  1.0000
  C  Sn34      1.0  0.54017  0.60509  0.77949  1.0000
  C  Sn35      1.0  0.55618  0.62943  0.75462  1.0000
  C   C274      1.0  0.57860  0.62486  0.65574  1.0000
  C  Sn36      1.0  0.58537  0.59647  0.58113  1.0000
  O  Te33      1.0  0.57575  0.54356  0.53264  1.0000
  O  Te34      1.0  0.51765  0.60910  0.87789  1.0000
  O  Te35      1.0  0.54978  0.65801  0.82808  1.0000
  O  Te36      1.0  0.60788  0.59246  0.48276  1.0000
  Mg  Mg17      1.0  0.51716  0.65223  0.95131  1.0000
  Mg  Mg18      1.0  0.60839  0.54934  0.40921  1.0000
  C  Sn37      1.0  0.07323  0.07730  0.86480  1.0000
  C   C275      1.0  0.07956  0.10689  0.80253  1.0000
  C  Sn38      1.0  0.06386  0.12613  0.75737  1.0000
  C  Sn39      1.0  0.04135  0.11558  0.77491  1.0000
  C   C276      1.0  0.03502  0.08601  0.83718  1.0000
  C  Sn40      1.0  0.05072  0.06675  0.88235  1.0000
  O  Te37      1.0  0.08921  0.05846  0.90918  1.0000
  O  Te38      1.0  0.07058  0.15561  0.69535  1.0000
  O  Te39      1.0  0.02536  0.13445  0.73046  1.0000
  O  Te40      1.0  0.04400  0.03729  0.94436  1.0000
  Mg  Mg19      1.0  0.04266  0.17272  0.65203  1.0000
  Mg  Mg20      1.0  0.07190  0.02017  0.98779  1.0000
  C  Sn41      1.0  0.83239  0.83786  0.33534  1.0000
  C   C277      1.0  0.82821  0.81167  0.25099  1.0000
  C  Sn42      1.0  0.84602  0.79199  0.17334  1.0000
  C  Sn43      1.0  0.86848  0.79861  0.18023  1.0000
  C   C278      1.0  0.87266  0.82479  0.26456  1.0000
  C  Sn44      1.0  0.85485  0.84448  0.34223  1.0000
  O  Te41      1.0  0.81432  0.85721  0.41208  1.0000
  O  Te42      1.0  0.84142  0.76596  0.08971  1.0000
  O  Te43      1.0  0.88656  0.77924  0.10339  1.0000
  O  Te44      1.0  0.85944  0.87050  0.42584  1.0000
  Mg  Mg21      1.0  0.87171  0.74659  0.00475  1.0000
  Mg  Mg22      1.0  0.82917  0.88988  0.51092  1.0000
  C  Sn45      1.0  0.65607  0.33963  0.39256  1.0000
  C   C279      1.0  0.66590  0.31175  0.32885  1.0000
  C  Sn46      1.0  0.65711  0.29483  0.21618  1.0000
  C  Sn47      1.0  0.63810  0.30603  0.16604  1.0000
  C   C280      1.0  0.62828  0.33390  0.22971  1.0000
  C  Sn48      1.0  0.63706  0.35082  0.34242  1.0000
  O  Te45      1.0  0.66514  0.35615  0.50505  1.0000
  O  Te46      1.0  0.66722  0.26702  0.15424  1.0000
  O  Te47      1.0  0.62903  0.28948  0.05346  1.0000
  O  Te48      1.0  0.62696  0.37863  0.40433  1.0000
  Mg  Mg23      1.0  0.64872  0.25286  0.00385  1.0000
  Mg  Mg24      1.0  0.64545  0.39282  0.55464  1.0000
  C  Sn49      1.0  0.13870  0.19899  0.61840  1.0000
  C   C281      1.0  0.13079  0.17036  0.68873  1.0000
  C  Sn50      1.0  0.14069  0.15591  0.80479  1.0000
  C  Sn51      1.0  0.15886  0.17038  0.85164  1.0000
  C   C282      1.0  0.16675  0.19898  0.78135  1.0000
  C  Sn52      1.0  0.15686  0.21345  0.66525  1.0000
  O  Te49      1.0  0.12855  0.21301  0.50262  1.0000
  O  Te50      1.0  0.13251  0.12730  0.87335  1.0000
  O  Te51      1.0  0.16900  0.15632  0.96752  1.0000
  O  Te52      1.0  0.16503  0.24205  0.59673  1.0000
  Mg  Mg25      1.0  0.18871  0.11930  0.02611  1.0000
  Mg  Mg26      1.0  0.14567  0.25198  0.44403  1.0000
  C  Sn53      1.0  0.63773  0.29440  0.73703  1.0000
  C   C283      1.0  0.62868  0.32307  0.79294  1.0000
  C  Sn54      1.0  0.64248  0.34580  0.83213  1.0000
  C  Sn55      1.0  0.66581  0.33977  0.81499  1.0000
  C   C284      1.0  0.67485  0.31113  0.75908  1.0000
  C  Sn56      1.0  0.66107  0.28837  0.71988  1.0000
  O  Te53      1.0  0.62362  0.27201  0.69856  1.0000
  O  Te54      1.0  0.63305  0.37428  0.88785  1.0000
  O  Te55      1.0  0.67992  0.36219  0.85352  1.0000
  O  Te56      1.0  0.67049  0.25991  0.66417  1.0000
  Mg  Mg27      1.0  0.65917  0.39738  0.92456  1.0000
  Mg  Mg28      1.0  0.64439  0.23681  0.62734  1.0000
  C  Sn57      1.0  0.92934  0.07945  0.63640  1.0000
  C   C285      1.0  0.92332  0.10903  0.69588  1.0000
  C  Sn58      1.0  0.93905  0.12776  0.74338  1.0000
  C  Sn59      1.0  0.96126  0.11670  0.73108  1.0000
  C   C286      1.0  0.96727  0.08714  0.67160  1.0000
  C  Sn60      1.0  0.95155  0.06839  0.62410  1.0000
  O  Te57      1.0  0.91334  0.06112  0.58961  1.0000
  O  Te58      1.0  0.93264  0.15725  0.80253  1.0000
  O  Te59      1.0  0.97727  0.13506  0.77794  1.0000
  O  Te60      1.0  0.95795  0.03892  0.56496  1.0000
  Mg  Mg29      1.0  0.96045  0.17355  0.85085  1.0000
  Mg  Mg30      1.0  0.93016  0.02261  0.51653  1.0000
  C  Sn61      1.0  0.63866  0.70466  0.39326  1.0000
  C   C287      1.0  0.66088  0.69694  0.30161  1.0000
  C  Sn62      1.0  0.66474  0.67630  0.16591  1.0000
  C  Sn63      1.0  0.64599  0.66312  0.12077  1.0000
  C   C288      1.0  0.62379  0.67085  0.21237  1.0000
  C  Sn64      1.0  0.61991  0.69148  0.34812  1.0000
  O  Te61      1.0  0.63520  0.72534  0.52845  1.0000
  O  Te62      1.0  0.68711  0.66893  0.07622  1.0000
  O  Te63      1.0  0.61264  0.64052  0.98546  1.0000
  O  Te64      1.0  0.59756  0.69886  0.43776  1.0000
  Mg  Mg31      1.0  0.64625  0.63770  0.90195  1.0000
  Mg  Mg32      1.0  0.60157  0.72819  0.61199  1.0000
