data_image0
_chemical_formula_structural       H112C256S8N32F8C2Sn2C2HTe2HMgC2Sn2C2HTe2HMgC2Sn2C2HTe2HMgC2Sn2C2HTe2HMgC2Sn2C2HTe2HMgC2Sn2C2HTe2HMgC2Sn2C2HTe2HMgC2Sn2C2HTe2HMgC2Sn2C2HTe2HMgC2Sn2C2HTe2HMgC2Sn2C2HTe2HMgC2Sn2C2HTe2HMgC2Sn2C2HTe2HMgC2Sn2C2HTe2HMgC2Sn2C2HTe2HMgC2Sn2C2HTe2HMg
_chemical_formula_sum              "H144 C320 S8 N32 F8 Sn32 Te32 Mg16"
_cell_length_a       60.0673
_cell_length_b       45.2101
_cell_length_c       8.07985
_cell_angle_alpha    90.6834
_cell_angle_beta     91.929
_cell_angle_gamma    90.0586

_symmetry_space_group_name_H-M    'P1'
_space_group_IT_number       1

loop_
  _space_group_symop_operation_xyz
  'x, y, z'

loop_
  _atom_site_type_symbol
  _atom_site_label
  _atom_site_symmetry_multiplicity
  _atom_site_fract_x
  _atom_site_fract_y
  _atom_site_fract_z
  _atom_site_occupancy
  H   H1        1.0  0.15154  0.23659  0.29233  1.0000
  H   H2        1.0  0.84934  0.76661  0.32068  1.0000
  H   H3        1.0  0.84960  0.23696  0.19660  1.0000
  H   H4        1.0  0.11611  0.20962  0.33268  1.0000
  H   H5        1.0  0.88493  0.79451  0.35425  1.0000
  H   H6        1.0  0.88481  0.20928  0.15656  1.0000
  H   H7        1.0  0.13948  0.13646  0.04134  1.0000
  H   H8        1.0  0.85854  0.86316  0.04040  1.0000
  H   H9        1.0  0.85931  0.13591  0.42681  1.0000
  H   H10       1.0  0.17566  0.16279  0.00695  1.0000
  H   H11       1.0  0.82225  0.83601  0.01314  1.0000
  H   H12       1.0  0.82341  0.16307  0.46060  1.0000
  H   H13       1.0  0.40649  0.33683  0.31269  1.0000
  H   H14       1.0  0.59408  0.66686  0.31417  1.0000
  H   H15       1.0  0.59502  0.33703  0.18633  1.0000
  H   H16       1.0  0.40422  0.66209  0.19727  1.0000
  H   H17       1.0  0.08907  0.08284  0.99318  1.0000
  H   H18       1.0  0.05556  0.05196  0.02975  1.0000
  H   H19       1.0  0.03013  0.11833  0.35997  1.0000
  H   H20       1.0  0.06225  0.14967  0.31218  1.0000
  H   H21       1.0  0.44377  0.47338  0.23987  1.0000
  H   H22       1.0  0.55664  0.52832  0.25488  1.0000
  H   H23       1.0  0.55701  0.47485  0.25558  1.0000
  H   H24       1.0  0.44342  0.52680  0.25805  1.0000
  H   H25       1.0  0.34604  0.73287  0.22253  1.0000
  H   H26       1.0  0.38217  0.70720  0.18566  1.0000
  H   H27       1.0  0.35893  0.63293  0.45890  1.0000
  H   H28       1.0  0.32209  0.65770  0.48789  1.0000
  H   H29       1.0  0.90585  0.83963  0.32419  1.0000
  H   H30       1.0  0.09489  0.16410  0.31873  1.0000
  H   H31       1.0  0.09398  0.83750  0.17567  1.0000
  H   H32       1.0  0.90584  0.16355  0.17129  1.0000
  H   H33       1.0  0.40992  0.58085  0.51216  1.0000
  H   H34       1.0  0.59118  0.41887  0.51116  1.0000
  H   H35       1.0  0.44410  0.55118  0.47888  1.0000
  H   H36       1.0  0.55727  0.44953  0.47264  1.0000
  H   H37       1.0  0.46970  0.61853  0.16418  1.0000
  H   H38       1.0  0.53003  0.38398  0.13200  1.0000
  H   H39       1.0  0.43712  0.64908  0.21274  1.0000
  H   H40       1.0  0.56248  0.35263  0.18225  1.0000
  H   H41       1.0  0.94343  0.97374  0.23873  1.0000
  H   H42       1.0  0.05672  0.02737  0.24735  1.0000
  H   H43       1.0  0.05670  0.97385  0.25219  1.0000
  H   H44       1.0  0.94349  0.02718  0.24959  1.0000
  H   H45       1.0  0.74421  0.69884  0.24453  1.0000
  H   H46       1.0  0.25321  0.30455  0.23624  1.0000
  H   H47       1.0  0.25431  0.69910  0.26208  1.0000
  H   H48       1.0  0.74675  0.30567  0.27730  1.0000
  H   H49       1.0  0.00012  0.10240  0.25287  1.0000
  H   H50       1.0  0.00010  0.89872  0.23952  1.0000
  H   H51       1.0  0.49965  0.60271  0.26718  1.0000
  H   H52       1.0  0.50075  0.39907  0.23965  1.0000
  H   H53       1.0  0.15205  0.23522  0.80291  1.0000
  H   H54       1.0  0.84750  0.23206  0.68408  1.0000
  H   H55       1.0  0.11680  0.20801  0.84553  1.0000
  H   H56       1.0  0.88234  0.20388  0.64005  1.0000
  H   H57       1.0  0.13872  0.13709  0.53157  1.0000
  H   H58       1.0  0.86001  0.13530  0.95929  1.0000
  H   H59       1.0  0.17476  0.16359  0.49433  1.0000
  H   H60       1.0  0.82430  0.16267  0.99724  1.0000
  H   H61       1.0  0.40411  0.34261  0.83672  1.0000
  H   H62       1.0  0.59187  0.66961  0.74657  1.0000
  H   H63       1.0  0.59409  0.33534  0.67118  1.0000
  H   H64       1.0  0.40465  0.66041  0.69055  1.0000
  H   H65       1.0  0.08915  0.08247  0.49363  1.0000
  H   H66       1.0  0.90992  0.91648  0.49062  1.0000
  H   H67       1.0  0.91035  0.08059  0.00008  1.0000
  H   H68       1.0  0.05565  0.05168  0.53066  1.0000
  H   H69       1.0  0.94398  0.94730  0.52311  1.0000
  H   H70       1.0  0.94455  0.05093  0.96792  1.0000
  H   H71       1.0  0.02978  0.11879  0.85421  1.0000
  H   H72       1.0  0.97236  0.88306  0.85749  1.0000
  H   H73       1.0  0.97012  0.11769  0.64929  1.0000
  H   H74       1.0  0.06180  0.15026  0.80344  1.0000
  H   H75       1.0  0.93968  0.85145  0.81242  1.0000
  H   H76       1.0  0.93732  0.14814  0.69502  1.0000
  H   H77       1.0  0.44384  0.47339  0.74051  1.0000
  H   H78       1.0  0.55737  0.52586  0.74810  1.0000
  H   H79       1.0  0.55714  0.47240  0.75195  1.0000
  H   H80       1.0  0.44422  0.52676  0.75510  1.0000
  H   H81       1.0  0.65214  0.73635  0.75087  1.0000
  H   H82       1.0  0.34443  0.72842  0.70637  1.0000
  H   H83       1.0  0.61548  0.71150  0.77696  1.0000
  H   H84       1.0  0.38120  0.70456  0.67012  1.0000
  H   H85       1.0  0.64125  0.63247  0.55340  1.0000
  H   H86       1.0  0.36172  0.63247  0.97646  1.0000
  H   H87       1.0  0.67832  0.65698  0.53011  1.0000
  H   H88       1.0  0.32432  0.65563  0.00693  1.0000
  H   H89       1.0  0.90728  0.83768  0.82497  1.0000
  H   H90       1.0  0.09550  0.16230  0.82587  1.0000
  H   H91       1.0  0.09550  0.83874  0.66601  1.0000
  H   H92       1.0  0.90329  0.15811  0.66259  1.0000
  H   H93       1.0  0.40818  0.41850  0.49079  1.0000
  H   H94       1.0  0.41184  0.58063  0.01286  1.0000
  H   H95       1.0  0.44253  0.44850  0.52288  1.0000
  H   H96       1.0  0.44578  0.55067  0.97506  1.0000
  H   H97       1.0  0.47132  0.38215  0.84183  1.0000
  H   H98       1.0  0.47109  0.61800  0.65910  1.0000
  H   H99       1.0  0.43816  0.35126  0.79619  1.0000
  H   H100      1.0  0.43856  0.64867  0.70961  1.0000
  H   H101      1.0  0.94435  0.97269  0.74062  1.0000
  H   H102      1.0  0.05714  0.02780  0.74960  1.0000
  H   H103      1.0  0.05762  0.97435  0.75245  1.0000
  H   H104      1.0  0.94393  0.02611  0.74968  1.0000
  H   H105      1.0  0.74491  0.70225  0.76044  1.0000
  H   H106      1.0  0.25576  0.29997  0.75654  1.0000
  H   H107      1.0  0.25255  0.69602  0.73508  1.0000
  H   H108      1.0  0.74450  0.30040  0.76140  1.0000
  H   H109      1.0  0.00003  0.10206  0.75511  1.0000
  H   H110      1.0  0.00127  0.89843  0.74517  1.0000
  H   H111      1.0  0.50130  0.60142  0.75556  1.0000
  H   H112      1.0  0.49996  0.39775  0.73508  1.0000
  C   C1        1.0  0.27006  0.26804  0.12019  1.0000
  C   C2        1.0  0.72807  0.73547  0.12034  1.0000
  C   C3        1.0  0.73050  0.26862  0.38836  1.0000
  C   C4        1.0  0.27107  0.73502  0.39322  1.0000
  C   C5        1.0  0.26627  0.23936  0.04646  1.0000
  C   C6        1.0  0.73250  0.76368  0.04879  1.0000
  C   C7        1.0  0.73466  0.23967  0.45344  1.0000
  C   C8        1.0  0.26722  0.76323  0.47032  1.0000
  C   C9        1.0  0.24423  0.22632  0.03957  1.0000
  C   C10       1.0  0.75484  0.77575  0.05200  1.0000
  C   C11       1.0  0.75671  0.22681  0.45156  1.0000
  C   C12       1.0  0.24508  0.77589  0.46991  1.0000
  C   C13       1.0  0.29146  0.28071  0.13102  1.0000
  C   C14       1.0  0.70633  0.72387  0.12318  1.0000
  C   C15       1.0  0.70899  0.28092  0.38455  1.0000
  C   C16       1.0  0.29248  0.72258  0.38618  1.0000
  C   C17       1.0  0.31004  0.29179  0.14252  1.0000
  C   C18       1.0  0.68755  0.71360  0.13029  1.0000
  C   C19       1.0  0.69026  0.29151  0.37788  1.0000
  C   C20       1.0  0.31071  0.71092  0.37348  1.0000
  C   C21       1.0  0.33160  0.69697  0.35704  1.0000
  C   C22       1.0  0.14877  0.21483  0.23653  1.0000
  C   C23       1.0  0.85151  0.78757  0.25860  1.0000
  C   C24       1.0  0.85191  0.21502  0.24803  1.0000
  C   C25       1.0  0.12899  0.19966  0.25852  1.0000
  C   C26       1.0  0.87135  0.80324  0.27671  1.0000
  C   C27       1.0  0.87155  0.19947  0.22649  1.0000
  C   C28       1.0  0.12539  0.17133  0.18780  1.0000
  C   C29       1.0  0.87413  0.83051  0.19722  1.0000
  C   C30       1.0  0.87452  0.17096  0.29247  1.0000
  C   C31       1.0  0.14242  0.15829  0.09589  1.0000
  C   C32       1.0  0.85622  0.84207  0.10100  1.0000
  C   C33       1.0  0.85691  0.15800  0.37725  1.0000
  C   C34       1.0  0.16242  0.17291  0.07660  1.0000
  C   C35       1.0  0.83617  0.82700  0.08567  1.0000
  C   C36       1.0  0.83707  0.17304  0.39600  1.0000
  C   C37       1.0  0.39524  0.34653  0.21800  1.0000
  C   C38       1.0  0.60389  0.65742  0.21386  1.0000
  C   C39       1.0  0.60543  0.34611  0.28943  1.0000
  C   C40       1.0  0.39419  0.65354  0.29753  1.0000
  C   C41       1.0  0.57981  0.38405  0.34650  1.0000
  C   C42       1.0  0.42043  0.61649  0.36023  1.0000
  C   C43       1.0  0.07613  0.09006  0.07549  1.0000
  C   C44       1.0  0.05741  0.07266  0.09868  1.0000
  C   C45       1.0  0.04038  0.08202  0.20300  1.0000
  C   C46       1.0  0.04268  0.11048  0.27603  1.0000
  C   C47       1.0  0.06115  0.12815  0.25097  1.0000
  C   C48       1.0  0.48013  0.43744  0.22355  1.0000
  C   C49       1.0  0.52013  0.56447  0.24248  1.0000
  C   C50       1.0  0.52101  0.43782  0.26474  1.0000
  C   C51       1.0  0.47950  0.56392  0.28173  1.0000
  C   C52       1.0  0.02075  0.03237  0.24154  1.0000
  C   C53       1.0  0.97935  0.96872  0.23575  1.0000
  C   C54       1.0  0.97944  0.03234  0.25705  1.0000
  C   C55       1.0  0.02077  0.96884  0.25377  1.0000
  C   C56       1.0  0.45948  0.48527  0.24401  1.0000
  C   C57       1.0  0.54091  0.51650  0.25350  1.0000
  C   C58       1.0  0.54114  0.48628  0.25646  1.0000
  C   C59       1.0  0.45931  0.51545  0.25649  1.0000
  C   C60       1.0  0.77333  0.76004  0.12645  1.0000
  C   C61       1.0  0.22548  0.24143  0.10706  1.0000
  C   C62       1.0  0.22628  0.76079  0.39309  1.0000
  C   C63       1.0  0.77513  0.24240  0.38410  1.0000
  C   C64       1.0  0.76798  0.73233  0.18897  1.0000
  C   C65       1.0  0.23019  0.26967  0.17162  1.0000
  C   C66       1.0  0.23113  0.73311  0.32429  1.0000
  C   C67       1.0  0.77013  0.27088  0.32884  1.0000
  C   C68       1.0  0.74643  0.72026  0.18772  1.0000
  C   C69       1.0  0.25141  0.28273  0.17947  1.0000
  C   C70       1.0  0.25243  0.72046  0.32318  1.0000
  C   C71       1.0  0.74886  0.28373  0.32894  1.0000
  C   C72       1.0  0.79475  0.77220  0.13712  1.0000
  C   C73       1.0  0.20439  0.22841  0.11322  1.0000
  C   C74       1.0  0.20501  0.77336  0.38378  1.0000
  C   C75       1.0  0.79617  0.22950  0.37096  1.0000
  C   C76       1.0  0.81295  0.78436  0.14871  1.0000
  C   C77       1.0  0.18636  0.21622  0.12686  1.0000
  C   C78       1.0  0.18671  0.78510  0.37051  1.0000
  C   C79       1.0  0.81405  0.21710  0.35353  1.0000
  C   C80       1.0  0.83350  0.79934  0.16364  1.0000
  C   C81       1.0  0.16593  0.20155  0.14615  1.0000
  C   C82       1.0  0.83427  0.20197  0.33279  1.0000
  C   C83       1.0  0.34894  0.71107  0.27441  1.0000
  C   C84       1.0  0.36914  0.69666  0.25472  1.0000
  C   C85       1.0  0.37297  0.66841  0.32152  1.0000
  C   C86       1.0  0.35577  0.65464  0.40667  1.0000
  C   C87       1.0  0.33535  0.66841  0.42245  1.0000
  C   C88       1.0  0.89511  0.84647  0.21874  1.0000
  C   C89       1.0  0.10460  0.15576  0.21519  1.0000
  C   C90       1.0  0.10442  0.84558  0.28117  1.0000
  C   C91       1.0  0.89538  0.15523  0.26960  1.0000
  C   C92       1.0  0.07869  0.11788  0.15390  1.0000
  C   C93       1.0  0.42308  0.58866  0.43440  1.0000
  C   C94       1.0  0.57772  0.41168  0.42671  1.0000
  C   C95       1.0  0.44216  0.57183  0.41246  1.0000
  C   C96       1.0  0.55882  0.42902  0.40244  1.0000
  C   C97       1.0  0.45937  0.58169  0.31227  1.0000
  C   C98       1.0  0.54120  0.41982  0.29438  1.0000
  C   C99       1.0  0.45697  0.61021  0.24415  1.0000
  C   C100      1.0  0.54308  0.39161  0.21891  1.0000
  C   C101      1.0  0.43821  0.62740  0.26917  1.0000
  C   C102      1.0  0.56172  0.37395  0.24548  1.0000
  C   C103      1.0  0.97956  0.93719  0.22261  1.0000
  C   C104      1.0  0.02044  0.06389  0.23201  1.0000
  C   C105      1.0  0.02049  0.93733  0.26197  1.0000
  C   C106      1.0  0.97977  0.06389  0.26965  1.0000
  C   C107      1.0  0.52066  0.53294  0.25003  1.0000
  C   C108      1.0  0.47971  0.46891  0.23836  1.0000
  C   C109      1.0  0.47935  0.53241  0.26561  1.0000
  C   C110      1.0  0.52111  0.46936  0.25802  1.0000
  C   C111      1.0  0.95925  0.98537  0.24087  1.0000
  C   C112      1.0  0.04091  0.01572  0.24629  1.0000
  C   C113      1.0  0.04092  0.98550  0.25133  1.0000
  C   C114      1.0  0.95930  0.01560  0.24987  1.0000
  C   C115      1.0  0.00012  0.07837  0.25196  1.0000
  C   C116      1.0  0.00004  0.92275  0.24094  1.0000
  C   C117      1.0  0.00008  0.01650  0.24842  1.0000
  C   C118      1.0  0.00006  0.98465  0.24606  1.0000
  C   C119      1.0  0.49975  0.57868  0.26429  1.0000
  C   C120      1.0  0.50064  0.42310  0.24202  1.0000
  C   C121      1.0  0.50010  0.51683  0.25556  1.0000
  C   C122      1.0  0.50031  0.48500  0.25061  1.0000
  C   C123      1.0  0.27112  0.26427  0.62216  1.0000
  C   C124      1.0  0.72835  0.73684  0.62174  1.0000
  C   C125      1.0  0.72901  0.26434  0.88729  1.0000
  C   C126      1.0  0.27049  0.73012  0.87401  1.0000
  C   C127      1.0  0.26633  0.23657  0.54007  1.0000
  C   C128      1.0  0.73225  0.76470  0.54426  1.0000
  C   C129      1.0  0.73374  0.23635  0.96239  1.0000
  C   C130      1.0  0.26755  0.75821  0.95503  1.0000
  C   C131      1.0  0.24395  0.22453  0.53410  1.0000
  C   C132      1.0  0.75435  0.77764  0.54672  1.0000
  C   C133      1.0  0.75602  0.22410  0.96363  1.0000
  C   C134      1.0  0.24588  0.77216  0.95777  1.0000
  C   C135      1.0  0.29282  0.27606  0.63387  1.0000
  C   C136      1.0  0.70704  0.72395  0.62285  1.0000
  C   C137      1.0  0.70727  0.27599  0.87854  1.0000
  C   C138      1.0  0.29167  0.71684  0.87020  1.0000
  C   C139      1.0  0.31134  0.28719  0.64940  1.0000
  C   C140      1.0  0.68876  0.71211  0.62876  1.0000
  C   C141      1.0  0.68847  0.28622  0.86462  1.0000
  C   C142      1.0  0.31035  0.70611  0.86748  1.0000
  C   C143      1.0  0.66773  0.69833  0.63943  1.0000
  C   C144      1.0  0.33182  0.69350  0.85724  1.0000
  C   C145      1.0  0.14901  0.21390  0.74273  1.0000
  C   C146      1.0  0.85036  0.21105  0.74516  1.0000
  C   C147      1.0  0.12931  0.19863  0.76580  1.0000
  C   C148      1.0  0.86984  0.19526  0.72133  1.0000
  C   C149      1.0  0.12538  0.17087  0.68922  1.0000
  C   C150      1.0  0.87356  0.16794  0.79948  1.0000
  C   C151      1.0  0.14195  0.15852  0.59013  1.0000
  C   C152      1.0  0.85695  0.15643  0.89984  1.0000
  C   C153      1.0  0.16188  0.17322  0.56951  1.0000
  C   C154      1.0  0.83720  0.17159  0.92075  1.0000
  C   C155      1.0  0.39413  0.34799  0.72452  1.0000
  C   C156      1.0  0.60443  0.65612  0.68467  1.0000
  C   C157      1.0  0.60448  0.34337  0.77703  1.0000
  C   C158      1.0  0.39525  0.65241  0.79557  1.0000
  C   C159      1.0  0.42015  0.38338  0.64657  1.0000
  C   C160      1.0  0.42209  0.61610  0.85894  1.0000
  C   C161      1.0  0.07619  0.08979  0.57551  1.0000
  C   C162      1.0  0.92370  0.90960  0.57200  1.0000
  C   C163      1.0  0.92341  0.08817  0.92066  1.0000
  C   C164      1.0  0.05749  0.07243  0.59908  1.0000
  C   C165      1.0  0.94267  0.92705  0.59324  1.0000
  C   C166      1.0  0.94251  0.07138  0.89974  1.0000
  C   C167      1.0  0.04041  0.08197  0.70254  1.0000
  C   C168      1.0  0.96059  0.91833  0.69839  1.0000
  C   C169      1.0  0.95974  0.08104  0.79909  1.0000
  C   C170      1.0  0.04251  0.11066  0.77263  1.0000
  C   C171      1.0  0.95900  0.89038  0.77359  1.0000
  C   C172      1.0  0.95731  0.10937  0.72873  1.0000
  C   C173      1.0  0.06094  0.12835  0.74661  1.0000
  C   C174      1.0  0.94029  0.87261  0.75012  1.0000
  C   C175      1.0  0.93846  0.12650  0.75196  1.0000
  C   C176      1.0  0.47973  0.43650  0.72083  1.0000
  C   C177      1.0  0.52127  0.56266  0.73156  1.0000
  C   C178      1.0  0.52070  0.43605  0.75976  1.0000
  C   C179      1.0  0.48074  0.56308  0.77457  1.0000
  C   C180      1.0  0.02116  0.03227  0.74328  1.0000
  C   C181      1.0  0.98028  0.96820  0.73817  1.0000
  C   C182      1.0  0.97985  0.03173  0.75790  1.0000
  C   C183      1.0  0.02172  0.96868  0.75620  1.0000
  C   C184      1.0  0.45973  0.48485  0.74277  1.0000
  C   C185      1.0  0.54151  0.51434  0.74639  1.0000
  C   C186      1.0  0.54138  0.48412  0.75099  1.0000
  C   C187      1.0  0.45995  0.51504  0.75330  1.0000
  C   C188      1.0  0.77300  0.76330  0.62782  1.0000
  C   C189      1.0  0.22588  0.23973  0.61044  1.0000
  C   C190      1.0  0.22665  0.75857  0.87848  1.0000
  C   C191      1.0  0.77411  0.23930  0.88870  1.0000
  C   C192      1.0  0.76801  0.73629  0.70056  1.0000
  C   C193      1.0  0.23162  0.26692  0.68424  1.0000
  C   C194      1.0  0.23064  0.73120  0.80303  1.0000
  C   C195      1.0  0.76844  0.26681  0.82206  1.0000
  C   C196      1.0  0.74683  0.72318  0.69769  1.0000
  C   C197      1.0  0.25316  0.27900  0.69145  1.0000
  C   C198      1.0  0.25145  0.71713  0.79999  1.0000
  C   C199      1.0  0.74700  0.27916  0.82066  1.0000
  C   C200      1.0  0.79431  0.77582  0.63723  1.0000
  C   C201      1.0  0.20451  0.22758  0.61637  1.0000
  C   C202      1.0  0.20564  0.77193  0.87328  1.0000
  C   C203      1.0  0.79530  0.22669  0.87796  1.0000
  C   C204      1.0  0.81282  0.78710  0.64905  1.0000
  C   C205      1.0  0.18628  0.21581  0.62776  1.0000
  C   C206      1.0  0.18736  0.78379  0.86386  1.0000
  C   C207      1.0  0.81330  0.21441  0.86359  1.0000
  C   C208      1.0  0.16577  0.20127  0.64568  1.0000
  C   C209      1.0  0.83359  0.19931  0.84396  1.0000
  C   C210      1.0  0.64966  0.71372  0.70698  1.0000
  C   C211      1.0  0.34836  0.70756  0.76609  1.0000
  C   C212      1.0  0.62920  0.69973  0.72099  1.0000
  C   C213      1.0  0.36894  0.69411  0.74672  1.0000
  C   C214      1.0  0.62597  0.67029  0.66626  1.0000
  C   C215      1.0  0.37391  0.66685  0.82195  1.0000
  C   C216      1.0  0.64397  0.65509  0.59682  1.0000
  C   C217      1.0  0.35763  0.65335  0.91746  1.0000
  C   C218      1.0  0.66449  0.66873  0.58418  1.0000
  C   C219      1.0  0.33688  0.66622  0.93396  1.0000
  C   C220      1.0  0.89647  0.84539  0.72186  1.0000
  C   C221      1.0  0.10475  0.15503  0.71753  1.0000
  C   C222      1.0  0.10543  0.84524  0.77743  1.0000
  C   C223      1.0  0.89416  0.15182  0.77258  1.0000
  C   C224      1.0  0.92188  0.88235  0.65273  1.0000
  C   C225      1.0  0.07861  0.11777  0.65211  1.0000
  C   C226      1.0  0.92070  0.11578  0.84394  1.0000
  C   C227      1.0  0.42202  0.41098  0.56966  1.0000
  C   C228      1.0  0.42486  0.58830  0.93338  1.0000
  C   C229      1.0  0.44121  0.42802  0.59091  1.0000
  C   C230      1.0  0.44381  0.57138  0.90934  1.0000
  C   C231      1.0  0.45934  0.41860  0.69220  1.0000
  C   C232      1.0  0.46085  0.58115  0.80736  1.0000
  C   C233      1.0  0.45771  0.39026  0.76249  1.0000
  C   C234      1.0  0.45843  0.60970  0.73977  1.0000
  C   C235      1.0  0.43876  0.37288  0.73898  1.0000
  C   C236      1.0  0.43972  0.62697  0.76606  1.0000
  C   C237      1.0  0.98070  0.93670  0.72650  1.0000
  C   C238      1.0  0.02058  0.06377  0.73286  1.0000
  C   C239      1.0  0.02164  0.93715  0.76531  1.0000
  C   C240      1.0  0.97995  0.06327  0.77120  1.0000
  C   C241      1.0  0.52144  0.53115  0.74147  1.0000
  C   C242      1.0  0.47972  0.46799  0.73575  1.0000
  C   C243      1.0  0.48020  0.53156  0.75990  1.0000
  C   C244      1.0  0.52116  0.46759  0.75278  1.0000
  C   C245      1.0  0.96005  0.98456  0.74222  1.0000
  C   C246      1.0  0.04144  0.01589  0.74839  1.0000
  C   C247      1.0  0.04171  0.98567  0.75311  1.0000
  C   C248      1.0  0.95983  0.01476  0.75022  1.0000
  C   C249      1.0  0.00018  0.07802  0.75340  1.0000
  C   C250      1.0  0.00122  0.92245  0.74552  1.0000
  C   C251      1.0  0.00063  0.01614  0.75011  1.0000
  C   C252      1.0  0.00089  0.98430  0.74829  1.0000
  C   C253      1.0  0.50111  0.57739  0.75411  1.0000
  C   C254      1.0  0.50012  0.42178  0.73797  1.0000
  C   C255      1.0  0.50071  0.51548  0.74904  1.0000
  C   C256      1.0  0.50054  0.48364  0.74578  1.0000
  S   S1        1.0  0.27169  0.80375  0.10470  1.0000
  S   S2        1.0  0.73265  0.19000  0.09949  1.0000
  S   S3        1.0  0.72984  0.81035  0.39984  1.0000
  S   S4        1.0  0.26727  0.19055  0.39322  1.0000
  S   S5        1.0  0.26974  0.80975  0.61189  1.0000
  S   S6        1.0  0.73282  0.19225  0.57828  1.0000
  S   S7        1.0  0.73092  0.81024  0.91354  1.0000
  S   S8        1.0  0.26886  0.19248  0.91038  1.0000
  N   N1        1.0  0.40035  0.36928  0.13102  1.0000
  N   N2        1.0  0.59790  0.63388  0.13104  1.0000
  N   N3        1.0  0.59985  0.36894  0.37704  1.0000
  N   N4        1.0  0.40026  0.63116  0.38679  1.0000
  N   N5        1.0  0.90035  0.86777  0.12138  1.0000
  N   N6        1.0  0.09849  0.13313  0.12473  1.0000
  N   N7        1.0  0.09901  0.86789  0.37353  1.0000
  N   N8        1.0  0.90089  0.13266  0.35940  1.0000
  N   N9        1.0  0.24596  0.79835  0.03943  1.0000
  N   N10       1.0  0.75763  0.19766  0.03853  1.0000
  N   N11       1.0  0.75522  0.80377  0.46847  1.0000
  N   N12       1.0  0.24226  0.19829  0.45351  1.0000
  N   N13       1.0  0.28375  0.77402  0.03516  1.0000
  N   N14       1.0  0.71882  0.21902  0.03648  1.0000
  N   N15       1.0  0.71674  0.78120  0.46359  1.0000
  N   N16       1.0  0.28124  0.21926  0.46364  1.0000
  N   N17       1.0  0.40001  0.36800  0.62123  1.0000
  N   N18       1.0  0.60066  0.62937  0.63166  1.0000
  N   N19       1.0  0.59898  0.36569  0.86883  1.0000
  N   N20       1.0  0.40200  0.63075  0.88780  1.0000
  N   N21       1.0  0.90172  0.86708  0.62728  1.0000
  N   N22       1.0  0.09831  0.13316  0.62246  1.0000
  N   N23       1.0  0.09977  0.86668  0.87505  1.0000
  N   N24       1.0  0.90077  0.13092  0.87092  1.0000
  N   N25       1.0  0.24428  0.80251  0.54652  1.0000
  N   N26       1.0  0.75791  0.19969  0.51892  1.0000
  N   N27       1.0  0.75620  0.80234  0.97907  1.0000
  N   N28       1.0  0.24346  0.19945  0.96526  1.0000
  N   N29       1.0  0.28282  0.78035  0.54823  1.0000
  N   N30       1.0  0.71944  0.22211  0.52261  1.0000
  N   N31       1.0  0.71726  0.78126  0.97293  1.0000
  N   N32       1.0  0.28187  0.22225  0.97659  1.0000
  F   F1        1.0  0.78460  0.71579  0.25846  1.0000
  F   F2        1.0  0.21320  0.28568  0.23369  1.0000
  F   F3        1.0  0.21428  0.71728  0.24996  1.0000
  F   F4        1.0  0.78681  0.28721  0.26648  1.0000
  F   F5        1.0  0.78461  0.72170  0.78332  1.0000
  F   F6        1.0  0.21541  0.28273  0.75824  1.0000
  F   F7        1.0  0.21318  0.71721  0.72491  1.0000
  F   F8        1.0  0.78459  0.28273  0.74981  1.0000
  C   C257      1.0  0.07410  0.91792  0.43254  1.0000
  C   C258      1.0  0.07859  0.88968  0.36992  1.0000
  C  Sn1       1.0  0.06356  0.87590  0.25802  1.0000
  C  Sn2       1.0  0.04367  0.89071  0.20808  1.0000
  C   C259      1.0  0.03934  0.91896  0.27135  1.0000
  C   C260      1.0  0.05450  0.93255  0.38330  1.0000
  H   H113      1.0  0.08583  0.92844  0.51909  1.0000
  O  Te1       1.0  0.06830  0.84767  0.19672  1.0000
  O  Te2       1.0  0.02837  0.87744  0.09636  1.0000
  H   H114      1.0  0.05102  0.95442  0.43168  1.0000
  Mg  Mg1       1.0  0.04227  0.83877  0.04735  1.0000
  C   C261      1.0  0.65987  0.33409  0.92972  1.0000
  C   C262      1.0  0.66648  0.30618  0.87381  1.0000
  C  Sn3       1.0  0.65206  0.28901  0.77297  1.0000
  C  Sn4       1.0  0.63065  0.30005  0.72743  1.0000
  C   C263      1.0  0.62420  0.32800  0.78391  1.0000
  C   C264      1.0  0.63875  0.34499  0.88480  1.0000
  H   H115      1.0  0.66660  0.34510  0.00771  1.0000
  O  Te3       1.0  0.65893  0.26118  0.71825  1.0000
  O  Te4       1.0  0.61591  0.28336  0.62672  1.0000
  H   H116      1.0  0.63363  0.36661  0.92798  1.0000
  Mg  Mg2       1.0  0.63291  0.24673  0.58340  1.0000
  C   C265      1.0  0.92522  0.91766  0.06027  1.0000
  C   C266      1.0  0.92092  0.88943  0.12024  1.0000
  C  Sn5       1.0  0.93642  0.87557  0.22619  1.0000
  C  Sn6       1.0  0.95657  0.89031  0.27278  1.0000
  C   C267      1.0  0.96071  0.91855  0.21220  1.0000
  C   C268      1.0  0.94510  0.93222  0.10621  1.0000
  H   H117      1.0  0.91767  0.93038  0.97833  1.0000
  O  Te5       1.0  0.93186  0.84736  0.28492  1.0000
  O  Te6       1.0  0.97234  0.87697  0.37855  1.0000
  H   H118      1.0  0.94843  0.95408  0.05988  1.0000
  Mg  Mg3       1.0  0.95853  0.83834  0.42603  1.0000
  C   C269      1.0  0.56219  0.57461  0.08631  1.0000
  C   C270      1.0  0.54429  0.57944  0.18934  1.0000
  C  Sn7       1.0  0.54288  0.60572  0.28111  1.0000
  C  Sn8       1.0  0.55973  0.62753  0.26923  1.0000
  C   C271      1.0  0.57756  0.62251  0.16571  1.0000
  C   C272      1.0  0.57881  0.59613  0.07446  1.0000
  H   H119      1.0  0.56315  0.55421  0.01563  1.0000
  O  Te7       1.0  0.52489  0.61017  0.38350  1.0000
  O  Te8       1.0  0.55873  0.65400  0.35954  1.0000
  H   H120      1.0  0.59719  0.59454  0.99462  1.0000
  Mg  Mg4       1.0  0.53093  0.64982  0.48204  1.0000
  C   C273      1.0  0.13198  0.79555  0.22317  1.0000
  C   C274      1.0  0.12523  0.82228  0.29403  1.0000
  C  Sn9       1.0  0.14007  0.83880  0.39495  1.0000
  C  Sn10      1.0  0.16206  0.82831  0.42521  1.0000
  C   C275      1.0  0.16866  0.80155  0.35364  1.0000
  C   C276      1.0  0.15368  0.78519  0.25290  1.0000
  H   H121      1.0  0.12039  0.78291  0.14514  1.0000
  O  Te9       1.0  0.13304  0.86545  0.46483  1.0000
  O  Te10      1.0  0.17724  0.84438  0.52553  1.0000
  H   H122      1.0  0.15892  0.76451  0.19796  1.0000
  Mg  Mg5       1.0  0.15981  0.87941  0.59281  1.0000
  C   C277      1.0  0.57455  0.41621  0.92549  1.0000
  C   C278      1.0  0.57875  0.38780  0.86411  1.0000
  C  Sn11      1.0  0.56339  0.37392  0.75514  1.0000
  C  Sn12      1.0  0.54347  0.38880  0.70692  1.0000
  C   C279      1.0  0.53943  0.41723  0.76893  1.0000
  C   C280      1.0  0.55491  0.43091  0.87794  1.0000
  H   H123      1.0  0.58201  0.42467  0.00977  1.0000
  O  Te11      1.0  0.56785  0.34553  0.69504  1.0000
  O  Te12      1.0  0.52783  0.37544  0.59813  1.0000
  H   H124      1.0  0.55166  0.45292  0.92536  1.0000
  Mg  Mg6       1.0  0.54143  0.33654  0.54976  1.0000
  C   C281      1.0  0.56360  0.57171  0.57560  1.0000
  C   C282      1.0  0.54564  0.57700  0.67742  1.0000
  C  Sn13      1.0  0.54464  0.60315  0.77069  1.0000
  C  Sn14      1.0  0.56196  0.62438  0.76156  1.0000
  C   C283      1.0  0.57984  0.61889  0.65924  1.0000
  C   C284      1.0  0.58068  0.59264  0.56648  1.0000
  H   H125      1.0  0.56424  0.55141  0.50375  1.0000
  O  Te13      1.0  0.52658  0.60808  0.87182  1.0000
  O  Te14      1.0  0.56137  0.65071  0.85341  1.0000
  H   H126      1.0  0.59458  0.58856  0.48758  1.0000
  Mg  Mg7       1.0  0.53329  0.64732  0.97331  1.0000
  C   C285      1.0  0.63489  0.29759  0.23513  1.0000
  C   C286      1.0  0.62698  0.32379  0.30528  1.0000
  C  Sn15      1.0  0.64106  0.34143  0.40614  1.0000
  C  Sn16      1.0  0.66347  0.33262  0.43708  1.0000
  C   C287      1.0  0.67123  0.30639  0.36622  1.0000
  C   C288      1.0  0.65699  0.28890  0.26553  1.0000
  H   H127      1.0  0.62389  0.28407  0.15714  1.0000
  O  Te15      1.0  0.63289  0.36753  0.47530  1.0000
  O  Te16      1.0  0.67790  0.34984  0.53736  1.0000
  H   H128      1.0  0.66313  0.26863  0.21114  1.0000
  Mg  Mg8       1.0  0.65898  0.38352  0.60352  1.0000
  C   C289      1.0  0.07578  0.91775  0.92847  1.0000
  C   C290      1.0  0.07973  0.88906  0.87030  1.0000
  C  Sn17      1.0  0.06418  0.87497  0.76370  1.0000
  C  Sn18      1.0  0.04433  0.88993  0.71461  1.0000
  C   C291      1.0  0.04054  0.91863  0.77339  1.0000
  C   C292      1.0  0.05621  0.93253  0.88005  1.0000
  H   H129      1.0  0.08338  0.92637  0.01092  1.0000
  O  Te17      1.0  0.06838  0.84630  0.70680  1.0000
  O  Te18      1.0  0.02851  0.87636  0.60813  1.0000
  H   H130      1.0  0.05315  0.95475  0.92498  1.0000
  Mg  Mg9       1.0  0.04178  0.83711  0.56382  1.0000
  C   C293      1.0  0.14891  0.84013  0.93244  1.0000
  C   C294      1.0  0.13044  0.83304  0.82971  1.0000
  C  Sn19      1.0  0.12999  0.80667  0.73777  1.0000
  C  Sn20      1.0  0.14840  0.78706  0.74918  1.0000
  C   C295      1.0  0.16679  0.79435  0.85240  1.0000
  C   C296      1.0  0.16706  0.82080  0.94382  1.0000
  H   H131      1.0  0.14459  0.85845  0.00325  1.0000
  O  Te19      1.0  0.11142  0.79993  0.63569  1.0000
  O  Te20      1.0  0.14839  0.76055  0.65869  1.0000
  H   H132      1.0  0.17683  0.82414  0.02343  1.0000
  Mg  Mg10      1.0  0.11925  0.76118  0.53674  1.0000
  C   C297      1.0  0.33917  0.33484  0.57045  1.0000
  C   C298      1.0  0.33285  0.30783  0.63711  1.0000
  C  Sn21      1.0  0.34726  0.29298  0.74701  1.0000
  C  Sn22      1.0  0.36836  0.30544  0.79079  1.0000
  C   C299      1.0  0.37451  0.33248  0.72352  1.0000
  C   C300      1.0  0.35998  0.34716  0.61361  1.0000
  H   H133      1.0  0.32792  0.34620  0.48549  1.0000
  O  Te21      1.0  0.34069  0.26601  0.81242  1.0000
  O  Te22      1.0  0.38308  0.29107  0.90040  1.0000
  H   H134      1.0  0.36486  0.36807  0.56210  1.0000
  Mg  Mg11      1.0  0.36656  0.25483  0.95674  1.0000
  C   C301      1.0  0.85190  0.84253  0.58451  1.0000
  C   C302      1.0  0.87072  0.83462  0.68022  1.0000
  C  Sn23      1.0  0.87111  0.80801  0.76647  1.0000
  C  Sn24      1.0  0.85228  0.78901  0.75643  1.0000
  C   C303      1.0  0.83354  0.79712  0.66025  1.0000
  C   C304      1.0  0.83332  0.82380  0.57450  1.0000
  H   H135      1.0  0.85173  0.86316  0.51808  1.0000
  O  Te23      1.0  0.89005  0.80045  0.86157  1.0000
  O  Te24      1.0  0.85223  0.76229  0.84132  1.0000
  H   H136      1.0  0.81875  0.82991  0.50032  1.0000
  Mg  Mg12      1.0  0.88197  0.76171  0.95469  1.0000
  C   C305      1.0  0.64600  0.66034  0.05641  1.0000
  C   C306      1.0  0.62882  0.66828  0.16052  1.0000
  C  Sn25      1.0  0.63022  0.69444  0.25413  1.0000
  C  Sn26      1.0  0.64918  0.71296  0.24301  1.0000
  C   C307      1.0  0.66627  0.70483  0.13840  1.0000
  C   C308      1.0  0.66470  0.67860  0.04532  1.0000
  H   H137      1.0  0.64931  0.64219  0.98432  1.0000
  O  Te25      1.0  0.61291  0.70203  0.35757  1.0000
  O  Te26      1.0  0.65100  0.73923  0.33514  1.0000
  H   H138      1.0  0.68253  0.67461  0.96465  1.0000
  Mg  Mg13      1.0  0.62308  0.74004  0.45853  1.0000
  C   C309      1.0  0.43667  0.42653  0.06645  1.0000
  C   C310      1.0  0.45551  0.42230  0.16960  1.0000
  C  Sn27      1.0  0.45753  0.39686  0.26544  1.0000
  C  Sn28      1.0  0.44033  0.37529  0.25757  1.0000
  C   C311      1.0  0.42156  0.37972  0.15390  1.0000
  C   C312      1.0  0.41971  0.40526  0.05857  1.0000
  H   H139      1.0  0.43978  0.44842  0.99262  1.0000
  O  Te27      1.0  0.47646  0.39299  0.36788  1.0000
  O  Te28      1.0  0.44192  0.34966  0.35199  1.0000
  H   H140      1.0  0.40966  0.41066  0.97864  1.0000
  Mg  Mg14      1.0  0.47096  0.35441  0.47285  1.0000
  C   C313      1.0  0.33824  0.34086  0.09591  1.0000
  C   C314      1.0  0.33181  0.31225  0.13760  1.0000
  C  Sn29      1.0  0.34689  0.29345  0.21913  1.0000
  C  Sn30      1.0  0.36881  0.30354  0.25954  1.0000
  C   C315      1.0  0.37507  0.33220  0.21740  1.0000
  C   C316      1.0  0.35985  0.35082  0.13578  1.0000
  H   H141      1.0  0.32646  0.35528  0.03285  1.0000
  O  Te29      1.0  0.34020  0.26494  0.25982  1.0000
  O  Te30      1.0  0.38421  0.28521  0.34105  1.0000
  H   H142      1.0  0.36483  0.37298  0.10362  1.0000
  Mg  Mg15      1.0  0.36720  0.24821  0.37047  1.0000
  C   C317      1.0  0.93693  0.07422  0.41773  1.0000
  C   C318      1.0  0.95538  0.07894  0.32048  1.0000
  C  Sn31      1.0  0.95717  0.10497  0.23033  1.0000
  C  Sn32      1.0  0.94015  0.12663  0.23795  1.0000
  C   C319      1.0  0.92177  0.12171  0.33570  1.0000
  C   C320      1.0  0.92014  0.09558  0.42538  1.0000
  H   H143      1.0  0.93568  0.05402  0.48719  1.0000
  O  Te31      1.0  0.97570  0.10932  0.13374  1.0000
  O  Te32      1.0  0.94152  0.15284  0.14915  1.0000
  H   H144      1.0  0.90586  0.09194  0.50075  1.0000
  Mg  Mg16      1.0  0.97002  0.14861  0.03510  1.0000
