data_image0
_chemical_formula_structural       H104C256S8N32F16C2Sn2C2HTe2HMgC2Sn2C2HTe2HMgC2Sn2C2HTe2HMgC2Sn2C2HTe2HMgC2Sn2C2HTe2HMgC2Sn2C2HTe2HMgC2Sn2C2HTe2HMgC2Sn2C2HTe2HMgC2Sn2C2HTe2HMgC2Sn2C2HTe2HMgC2Sn2C2HTe2HMgC2Sn2C2HTe2HMgC2Sn2C2HTe2HMgC2Sn2C2HTe2HMgC2Sn2C2HTe2HMgC2Sn2C2HTe2HMg
_chemical_formula_sum              "H136 C320 S8 N32 F16 Sn32 Te32 Mg16"
_cell_length_a       61.0828
_cell_length_b       43.6998
_cell_length_c       8.09294
_cell_angle_alpha    89.4254
_cell_angle_beta     73.86
_cell_angle_gamma    90.0582

_symmetry_space_group_name_H-M    'P1'
_space_group_IT_number       1

loop_
  _space_group_symop_operation_xyz
  'x, y, z'

loop_
  _atom_site_type_symbol
  _atom_site_label
  _atom_site_symmetry_multiplicity
  _atom_site_fract_x
  _atom_site_fract_y
  _atom_site_fract_z
  _atom_site_occupancy
  H   H1        1.0  0.15308  0.23696  0.10479  1.0000
  H   H2        1.0  0.11631  0.21177  0.10970  1.0000
  H   H3        1.0  0.13451  0.13310  0.36600  1.0000
  H   H4        1.0  0.17193  0.15779  0.35569  1.0000
  H   H5        1.0  0.39838  0.33624  0.34154  1.0000
  H   H6        1.0  0.58733  0.66415  0.34695  1.0000
  H   H7        1.0  0.59817  0.33445  0.16366  1.0000
  H   H8        1.0  0.41129  0.66294  0.11221  1.0000
  H   H9        1.0  0.08167  0.07965  0.46937  1.0000
  H   H10       1.0  0.04853  0.04871  0.45445  1.0000
  H   H11       1.0  0.02766  0.12162  0.17067  1.0000
  H   H12       1.0  0.05891  0.15318  0.20297  1.0000
  H   H13       1.0  0.44241  0.46937  0.26342  1.0000
  H   H14       1.0  0.55553  0.52448  0.20795  1.0000
  H   H15       1.0  0.55509  0.46939  0.21626  1.0000
  H   H16       1.0  0.44209  0.52449  0.27321  1.0000
  H   H17       1.0  0.66054  0.26950  0.15847  1.0000
  H   H18       1.0  0.62320  0.29073  0.14562  1.0000
  H   H19       1.0  0.63670  0.37324  0.38721  1.0000
  H   H20       1.0  0.67457  0.35250  0.39360  1.0000
  H   H21       1.0  0.90678  0.83514  0.12981  1.0000
  H   H22       1.0  0.09324  0.16530  0.14505  1.0000
  H   H23       1.0  0.08983  0.83420  0.39464  1.0000
  H   H24       1.0  0.90396  0.16461  0.32756  1.0000
  H   H25       1.0  0.59712  0.58609  0.97122  1.0000
  H   H26       1.0  0.40134  0.58693  0.50764  1.0000
  H   H27       1.0  0.58156  0.42085  0.46927  1.0000
  H   H28       1.0  0.56247  0.55501  0.98804  1.0000
  H   H29       1.0  0.43553  0.55487  0.48782  1.0000
  H   H30       1.0  0.54730  0.44816  0.44436  1.0000
  H   H31       1.0  0.52391  0.61356  0.38806  1.0000
  H   H32       1.0  0.47477  0.61479  0.08968  1.0000
  H   H33       1.0  0.53042  0.37198  0.16925  1.0000
  H   H34       1.0  0.55768  0.64497  0.36561  1.0000
  H   H35       1.0  0.44154  0.64756  0.11844  1.0000
  H   H36       1.0  0.56310  0.34394  0.20901  1.0000
  H   H37       1.0  0.94271  0.96797  0.26636  1.0000
  H   H38       1.0  0.05438  0.02447  0.24605  1.0000
  H   H39       1.0  0.05474  0.96937  0.24374  1.0000
  H   H40       1.0  0.94265  0.02310  0.25785  1.0000
  H   H41       1.0  0.99832  0.10157  0.24170  1.0000
  H   H42       1.0  0.99906  0.89078  0.25712  1.0000
  H   H43       1.0  0.49908  0.60246  0.23713  1.0000
  H   H44       1.0  0.49879  0.39155  0.23605  1.0000
  H   H45       1.0  0.84930  0.76735  0.59130  1.0000
  H   H46       1.0  0.84820  0.23854  0.84657  1.0000
  H   H47       1.0  0.15150  0.77181  0.93457  1.0000
  H   H48       1.0  0.88627  0.79318  0.56846  1.0000
  H   H49       1.0  0.88462  0.21342  0.85132  1.0000
  H   H50       1.0  0.11444  0.79735  0.95666  1.0000
  H   H51       1.0  0.85210  0.86191  0.92330  1.0000
  H   H52       1.0  0.86644  0.13418  0.60672  1.0000
  H   H53       1.0  0.14775  0.86282  0.56803  1.0000
  H   H54       1.0  0.81467  0.83668  0.94371  1.0000
  H   H55       1.0  0.82948  0.15892  0.60586  1.0000
  H   H56       1.0  0.18527  0.83789  0.54857  1.0000
  H   H57       1.0  0.40423  0.32850  0.83977  1.0000
  H   H58       1.0  0.58734  0.66374  0.86373  1.0000
  H   H59       1.0  0.60095  0.33448  0.65827  1.0000
  H   H60       1.0  0.40922  0.65666  0.62680  1.0000
  H   H61       1.0  0.08503  0.07708  0.97184  1.0000
  H   H62       1.0  0.91793  0.07974  0.52699  1.0000
  H   H63       1.0  0.09767  0.91199  0.49070  1.0000
  H   H64       1.0  0.05128  0.04720  0.96020  1.0000
  H   H65       1.0  0.95090  0.04896  0.54769  1.0000
  H   H66       1.0  0.06200  0.94086  0.51152  1.0000
  H   H67       1.0  0.03075  0.12132  0.68231  1.0000
  H   H68       1.0  0.97145  0.12189  0.82708  1.0000
  H   H69       1.0  0.02561  0.87874  0.90866  1.0000
  H   H70       1.0  0.06253  0.15196  0.71356  1.0000
  H   H71       1.0  0.94069  0.15341  0.78671  1.0000
  H   H72       1.0  0.06044  0.84890  0.87921  1.0000
  H   H73       1.0  0.44550  0.46728  0.75306  1.0000
  H   H74       1.0  0.55772  0.52484  0.70715  1.0000
  H   H75       1.0  0.55774  0.46979  0.72084  1.0000
  H   H76       1.0  0.44466  0.52243  0.75929  1.0000
  H   H77       1.0  0.35397  0.72558  0.56401  1.0000
  H   H78       1.0  0.66282  0.26794  0.64777  1.0000
  H   H79       1.0  0.38982  0.69794  0.55543  1.0000
  H   H80       1.0  0.62609  0.29034  0.63127  1.0000
  H   H81       1.0  0.35288  0.63475  0.94395  1.0000
  H   H82       1.0  0.63879  0.37032  0.89604  1.0000
  H   H83       1.0  0.31649  0.66147  0.94842  1.0000
  H   H84       1.0  0.67628  0.34874  0.90636  1.0000
  H   H85       1.0  0.90797  0.83411  0.62944  1.0000
  H   H86       1.0  0.09730  0.16212  0.64576  1.0000
  H   H87       1.0  0.09270  0.83740  0.88883  1.0000
  H   H88       1.0  0.90736  0.16730  0.82671  1.0000
  H   H89       1.0  0.59837  0.58767  0.47537  1.0000
  H   H90       1.0  0.40269  0.58141  0.02133  1.0000
  H   H91       1.0  0.56441  0.55528  0.49311  1.0000
  H   H92       1.0  0.43793  0.55088  0.99061  1.0000
  H   H93       1.0  0.52415  0.61471  0.88030  1.0000
  H   H94       1.0  0.47443  0.61321  0.59463  1.0000
  H   H95       1.0  0.55715  0.64801  0.85248  1.0000
  H   H96       1.0  0.44015  0.64424  0.63223  1.0000
  H   H97       1.0  0.94391  0.96986  0.76608  1.0000
  H   H98       1.0  0.05618  0.02347  0.75100  1.0000
  H   H99       1.0  0.05586  0.96840  0.74644  1.0000
  H   H100      1.0  0.94459  0.02499  0.76058  1.0000
  H   H101      1.0  0.00096  0.10204  0.75592  1.0000
  H   H102      1.0  0.99934  0.89116  0.75723  1.0000
  H   H103      1.0  0.49997  0.60152  0.73814  1.0000
  H   H104      1.0  0.50184  0.39074  0.75351  1.0000
  C   C1        1.0  0.26913  0.26591  0.20976  1.0000
  C   C2        1.0  0.72314  0.73774  0.28467  1.0000
  C   C3        1.0  0.72976  0.27085  0.27730  1.0000
  C   C4        1.0  0.27513  0.73976  0.22175  1.0000
  C   C5        1.0  0.26330  0.23581  0.28160  1.0000
  C   C6        1.0  0.72492  0.76565  0.37243  1.0000
  C   C7        1.0  0.73454  0.24072  0.20695  1.0000
  C   C8        1.0  0.27126  0.76728  0.13573  1.0000
  C   C9        1.0  0.24164  0.22180  0.28746  1.0000
  C   C10       1.0  0.74688  0.77824  0.37113  1.0000
  C   C11       1.0  0.75627  0.22609  0.19106  1.0000
  C   C12       1.0  0.24842  0.77777  0.14783  1.0000
  C   C13       1.0  0.28966  0.28038  0.20812  1.0000
  C   C14       1.0  0.70250  0.72503  0.27609  1.0000
  C   C15       1.0  0.70910  0.28547  0.28555  1.0000
  C   C16       1.0  0.29668  0.72855  0.21791  1.0000
  C   C17       1.0  0.30732  0.29308  0.21202  1.0000
  C   C18       1.0  0.68500  0.71325  0.26080  1.0000
  C   C19       1.0  0.69102  0.29713  0.28302  1.0000
  C   C20       1.0  0.31470  0.71704  0.22313  1.0000
  C   C21       1.0  0.66993  0.30950  0.27751  1.0000
  C   C22       1.0  0.14883  0.21439  0.16276  1.0000
  C   C23       1.0  0.12832  0.20026  0.16649  1.0000
  C   C24       1.0  0.12291  0.17092  0.24096  1.0000
  C   C25       1.0  0.13885  0.15577  0.30949  1.0000
  C   C26       1.0  0.15954  0.16940  0.30349  1.0000
  C   C27       1.0  0.39136  0.34569  0.24046  1.0000
  C   C28       1.0  0.60236  0.65466  0.25343  1.0000
  C   C29       1.0  0.60554  0.34551  0.25747  1.0000
  C   C30       1.0  0.39654  0.65534  0.21679  1.0000
  C   C31       1.0  0.58029  0.61722  0.16875  1.0000
  C   C32       1.0  0.57578  0.38127  0.33197  1.0000
  C   C33       1.0  0.41849  0.61864  0.31020  1.0000
  C   C34       1.0  0.06992  0.08829  0.40080  1.0000
  C   C35       1.0  0.05141  0.07075  0.38918  1.0000
  C   C36       1.0  0.03599  0.08145  0.30059  1.0000
  C   C37       1.0  0.03904  0.11208  0.23970  1.0000
  C   C38       1.0  0.05720  0.12994  0.25428  1.0000
  C   C39       1.0  0.47955  0.43150  0.21431  1.0000
  C   C40       1.0  0.51979  0.56245  0.21661  1.0000
  C   C41       1.0  0.51797  0.43136  0.25980  1.0000
  C   C42       1.0  0.47824  0.56250  0.25808  1.0000
  C   C43       1.0  0.01855  0.02961  0.25887  1.0000
  C   C44       1.0  0.97826  0.96326  0.26150  1.0000
  C   C45       1.0  0.97851  0.02904  0.23985  1.0000
  C   C46       1.0  0.01938  0.96373  0.24569  1.0000
  C   C47       1.0  0.45832  0.48137  0.25179  1.0000
  C   C48       1.0  0.53963  0.51257  0.21770  1.0000
  C   C49       1.0  0.53926  0.48133  0.22563  1.0000
  C   C50       1.0  0.45805  0.51261  0.26026  1.0000
  C   C51       1.0  0.76781  0.76363  0.28088  1.0000
  C   C52       1.0  0.22514  0.23742  0.22078  1.0000
  C   C53       1.0  0.22857  0.76112  0.24482  1.0000
  C   C54       1.0  0.77386  0.24087  0.24867  1.0000
  C   C55       1.0  0.76525  0.73645  0.19858  1.0000
  C   C56       1.0  0.23175  0.26627  0.14760  1.0000
  C   C57       1.0  0.23318  0.73432  0.32447  1.0000
  C   C58       1.0  0.76829  0.26978  0.31987  1.0000
  C   C59       1.0  0.74383  0.72379  0.20376  1.0000
  C   C60       1.0  0.25289  0.27991  0.14226  1.0000
  C   C61       1.0  0.25547  0.72427  0.31387  1.0000
  C   C62       1.0  0.74728  0.28426  0.33192  1.0000
  C   C63       1.0  0.78905  0.77608  0.27693  1.0000
  C   C64       1.0  0.20415  0.22436  0.22440  1.0000
  C   C65       1.0  0.20663  0.77198  0.25604  1.0000
  C   C66       1.0  0.79489  0.22728  0.23795  1.0000
  C   C67       1.0  0.80725  0.78789  0.27654  1.0000
  C   C68       1.0  0.18581  0.21282  0.22619  1.0000
  C   C69       1.0  0.18845  0.78401  0.25840  1.0000
  C   C70       1.0  0.81319  0.21514  0.23164  1.0000
  C   C71       1.0  0.16485  0.19904  0.23023  1.0000
  C   C72       1.0  0.65507  0.29203  0.20922  1.0000
  C   C73       1.0  0.63424  0.30397  0.20332  1.0000
  C   C74       1.0  0.62727  0.33324  0.26904  1.0000
  C   C75       1.0  0.64209  0.35058  0.33779  1.0000
  C   C76       1.0  0.66312  0.33912  0.34095  1.0000
  C   C77       1.0  0.89267  0.84369  0.23515  1.0000
  C   C78       1.0  0.10160  0.15610  0.23887  1.0000
  C   C79       1.0  0.10423  0.84291  0.29056  1.0000
  C   C80       1.0  0.89579  0.15549  0.23314  1.0000
  C   C81       1.0  0.07379  0.11781  0.32744  1.0000
  C   C82       1.0  0.58096  0.59159  0.06342  1.0000
  C   C83       1.0  0.41751  0.59247  0.41475  1.0000
  C   C84       1.0  0.57043  0.41064  0.40072  1.0000
  C   C85       1.0  0.56157  0.57399  0.07549  1.0000
  C   C86       1.0  0.43665  0.57434  0.40104  1.0000
  C   C87       1.0  0.55130  0.42607  0.38392  1.0000
  C   C88       1.0  0.54062  0.58105  0.19495  1.0000
  C   C89       1.0  0.45762  0.58142  0.28069  1.0000
  C   C90       1.0  0.53672  0.41343  0.29446  1.0000
  C   C91       1.0  0.53981  0.60762  0.29399  1.0000
  C   C92       1.0  0.45879  0.60869  0.18356  1.0000
  C   C93       1.0  0.54119  0.38293  0.23832  1.0000
  C   C94       1.0  0.55905  0.62539  0.28153  1.0000
  C   C95       1.0  0.43986  0.62708  0.19851  1.0000
  C   C96       1.0  0.56008  0.36711  0.25769  1.0000
  C   C97       1.0  0.97832  0.93066  0.27113  1.0000
  C   C98       1.0  0.01754  0.06228  0.27065  1.0000
  C   C99       1.0  0.01961  0.93110  0.23955  1.0000
  C   C100      1.0  0.97918  0.06169  0.22207  1.0000
  C   C101      1.0  0.51969  0.52985  0.22335  1.0000
  C   C102      1.0  0.47868  0.46411  0.23211  1.0000
  C   C103      1.0  0.47812  0.52990  0.25200  1.0000
  C   C104      1.0  0.51893  0.46404  0.24236  1.0000
  C   C105      1.0  0.95837  0.98018  0.26070  1.0000
  C   C106      1.0  0.03867  0.01247  0.25108  1.0000
  C   C107      1.0  0.03904  0.98121  0.24627  1.0000
  C   C108      1.0  0.95847  0.01142  0.25231  1.0000
  C   C109      1.0  0.99835  0.07677  0.24443  1.0000
  C   C110      1.0  0.99901  0.91567  0.25582  1.0000
  C   C111      1.0  0.99862  0.01296  0.25026  1.0000
  C   C112      1.0  0.99876  0.97999  0.25236  1.0000
  C   C113      1.0  0.49906  0.57757  0.23709  1.0000
  C   C114      1.0  0.49878  0.41640  0.23647  1.0000
  C   C115      1.0  0.49889  0.51344  0.23727  1.0000
  C   C116      1.0  0.49884  0.48049  0.23705  1.0000
  C   C117      1.0  0.27210  0.26467  0.72263  1.0000
  C   C118      1.0  0.72316  0.73941  0.78885  1.0000
  C   C119      1.0  0.73172  0.26780  0.77748  1.0000
  C   C120      1.0  0.27481  0.73588  0.72804  1.0000
  C   C121      1.0  0.26630  0.23394  0.78558  1.0000
  C   C122      1.0  0.72561  0.76714  0.87667  1.0000
  C   C123      1.0  0.73709  0.23824  0.70020  1.0000
  C   C124      1.0  0.27373  0.76415  0.63831  1.0000
  C   C125      1.0  0.24443  0.22056  0.79191  1.0000
  C   C126      1.0  0.74788  0.77885  0.87358  1.0000
  C   C127      1.0  0.75892  0.22400  0.68410  1.0000
  C   C128      1.0  0.25210  0.77760  0.63807  1.0000
  C   C129      1.0  0.29289  0.27818  0.72233  1.0000
  C   C130      1.0  0.70213  0.72765  0.78252  1.0000
  C   C131      1.0  0.71087  0.28205  0.78866  1.0000
  C   C132      1.0  0.29515  0.72234  0.73725  1.0000
  C   C133      1.0  0.31093  0.28975  0.72803  1.0000
  C   C134      1.0  0.68431  0.71618  0.77086  1.0000
  C   C135      1.0  0.69283  0.29388  0.78592  1.0000
  C   C136      1.0  0.31244  0.70969  0.75096  1.0000
  C   C137      1.0  0.67197  0.30672  0.77878  1.0000
  C   C138      1.0  0.33282  0.69532  0.75676  1.0000
  C   C139      1.0  0.84998  0.78783  0.66488  1.0000
  C   C140      1.0  0.85243  0.21587  0.79305  1.0000
  C   C141      1.0  0.15054  0.79149  0.85360  1.0000
  C   C142      1.0  0.87060  0.80240  0.65250  1.0000
  C   C143      1.0  0.87273  0.20178  0.79477  1.0000
  C   C144      1.0  0.12992  0.80586  0.86540  1.0000
  C   C145      1.0  0.87163  0.82917  0.74561  1.0000
  C   C146      1.0  0.87798  0.17224  0.72691  1.0000
  C   C147      1.0  0.12864  0.83163  0.76271  1.0000
  C   C148      1.0  0.85115  0.84132  0.85108  1.0000
  C   C149      1.0  0.86219  0.15698  0.65823  1.0000
  C   C150      1.0  0.14887  0.84302  0.64760  1.0000
  C   C151      1.0  0.83043  0.82726  0.86236  1.0000
  C   C152      1.0  0.84175  0.17061  0.65826  1.0000
  C   C153      1.0  0.16963  0.82918  0.63678  1.0000
  C   C154      1.0  0.39613  0.33978  0.75010  1.0000
  C   C155      1.0  0.60222  0.65635  0.76097  1.0000
  C   C156      1.0  0.60840  0.34463  0.75424  1.0000
  C   C157      1.0  0.39510  0.64938  0.73711  1.0000
  C   C158      1.0  0.58070  0.61939  0.66687  1.0000
  C   C159      1.0  0.41845  0.61415  0.82524  1.0000
  C   C160      1.0  0.07322  0.08620  0.90519  1.0000
  C   C161      1.0  0.92964  0.08845  0.59514  1.0000
  C   C162      1.0  0.08180  0.90525  0.58378  1.0000
  C   C163      1.0  0.05436  0.06927  0.89529  1.0000
  C   C164      1.0  0.94799  0.07099  0.61046  1.0000
  C   C165      1.0  0.06185  0.92156  0.59770  1.0000
  C   C166      1.0  0.03879  0.08060  0.80953  1.0000
  C   C167      1.0  0.96328  0.08176  0.69925  1.0000
  C   C168      1.0  0.04125  0.91297  0.71835  1.0000
  C   C169      1.0  0.04219  0.11125  0.74925  1.0000
  C   C170      1.0  0.96027  0.11235  0.75694  1.0000
  C   C171      1.0  0.04130  0.88595  0.81473  1.0000
  C   C172      1.0  0.06062  0.12861  0.76325  1.0000
  C   C173      1.0  0.94235  0.13020  0.73773  1.0000
  C   C174      1.0  0.06114  0.86928  0.79960  1.0000
  C   C175      1.0  0.48256  0.43000  0.72383  1.0000
  C   C176      1.0  0.52133  0.56211  0.71741  1.0000
  C   C177      1.0  0.52094  0.43106  0.77000  1.0000
  C   C178      1.0  0.47982  0.56095  0.75837  1.0000
  C   C179      1.0  0.02036  0.02945  0.76760  1.0000
  C   C180      1.0  0.97925  0.96410  0.76505  1.0000
  C   C181      1.0  0.98040  0.03000  0.74760  1.0000
  C   C182      1.0  0.02034  0.96367  0.75044  1.0000
  C   C183      1.0  0.46115  0.47955  0.74629  1.0000
  C   C184      1.0  0.54186  0.51265  0.71956  1.0000
  C   C185      1.0  0.54178  0.48140  0.73042  1.0000
  C   C186      1.0  0.46055  0.51078  0.75292  1.0000
  C   C187      1.0  0.76839  0.76290  0.78724  1.0000
  C   C188      1.0  0.22771  0.23723  0.73214  1.0000
  C   C189      1.0  0.23079  0.76335  0.72701  1.0000
  C   C190      1.0  0.77632  0.23916  0.74171  1.0000
  C   C191      1.0  0.76520  0.73541  0.70954  1.0000
  C   C192      1.0  0.23412  0.26683  0.67026  1.0000
  C   C193      1.0  0.23272  0.73553  0.80845  1.0000
  C   C194      1.0  0.77037  0.26770  0.81699  1.0000
  C   C195      1.0  0.74351  0.72457  0.70632  1.0000
  C   C196      1.0  0.25528  0.28008  0.66747  1.0000
  C   C197      1.0  0.25379  0.72239  0.80839  1.0000
  C   C198      1.0  0.74877  0.28107  0.83844  1.0000
  C   C199      1.0  0.78995  0.77453  0.78184  1.0000
  C   C200      1.0  0.20660  0.22444  0.73590  1.0000
  C   C201      1.0  0.20982  0.77663  0.73063  1.0000
  C   C202      1.0  0.79743  0.22584  0.73031  1.0000
  C   C203      1.0  0.80835  0.78619  0.77745  1.0000
  C   C204      1.0  0.18848  0.21238  0.73797  1.0000
  C   C205      1.0  0.19185  0.78914  0.73201  1.0000
  C   C206      1.0  0.81571  0.21407  0.72720  1.0000
  C   C207      1.0  0.82945  0.80014  0.76972  1.0000
  C   C208      1.0  0.17081  0.80309  0.73928  1.0000
  C   C209      1.0  0.83653  0.20033  0.72609  1.0000
  C   C210      1.0  0.35382  0.70594  0.64784  1.0000
  C   C211      1.0  0.65743  0.29022  0.70275  1.0000
  C   C212      1.0  0.37376  0.69049  0.64378  1.0000
  C   C213      1.0  0.63687  0.30276  0.69478  1.0000
  C   C214      1.0  0.37363  0.66471  0.74966  1.0000
  C   C215      1.0  0.62987  0.33161  0.76612  1.0000
  C   C216      1.0  0.35277  0.65453  0.86150  1.0000
  C   C217      1.0  0.64436  0.34800  0.84232  1.0000
  C   C218      1.0  0.33266  0.66942  0.86401  1.0000
  C   C219      1.0  0.66514  0.33603  0.84752  1.0000
  C   C220      1.0  0.89371  0.84326  0.73161  1.0000
  C   C221      1.0  0.10535  0.15355  0.74296  1.0000
  C   C222      1.0  0.10651  0.84556  0.77869  1.0000
  C   C223      1.0  0.89891  0.15732  0.73624  1.0000
  C   C224      1.0  0.07723  0.11584  0.83383  1.0000
  C   C225      1.0  0.08209  0.87936  0.68810  1.0000
  C   C226      1.0  0.92594  0.11808  0.66351  1.0000
  C   C227      1.0  0.58203  0.59309  0.56554  1.0000
  C   C228      1.0  0.41851  0.58781  0.92656  1.0000
  C   C229      1.0  0.56301  0.57468  0.57847  1.0000
  C   C230      1.0  0.43820  0.57060  0.90703  1.0000
  C   C231      1.0  0.54180  0.58147  0.69527  1.0000
  C   C232      1.0  0.45871  0.57893  0.78468  1.0000
  C   C233      1.0  0.54030  0.60879  0.78921  1.0000
  C   C234      1.0  0.45885  0.60627  0.69042  1.0000
  C   C235      1.0  0.55912  0.62751  0.77476  1.0000
  C   C236      1.0  0.43931  0.62367  0.71047  1.0000
  C   C237      1.0  0.97894  0.93145  0.77274  1.0000
  C   C238      1.0  0.01988  0.06212  0.78113  1.0000
  C   C239      1.0  0.02023  0.93110  0.74144  1.0000
  C   C240      1.0  0.98157  0.06267  0.73222  1.0000
  C   C241      1.0  0.52171  0.52949  0.72497  1.0000
  C   C242      1.0  0.48147  0.46269  0.73515  1.0000
  C   C243      1.0  0.48025  0.52841  0.75042  1.0000
  C   C244      1.0  0.52159  0.46368  0.74968  1.0000
  C   C245      1.0  0.95967  0.98162  0.76304  1.0000
  C   C246      1.0  0.04030  0.01183  0.75733  1.0000
  C   C247      1.0  0.04025  0.98060  0.75112  1.0000
  C   C248      1.0  0.96021  0.01289  0.75639  1.0000
  C   C249      1.0  0.00083  0.07723  0.75662  1.0000
  C   C250      1.0  0.99950  0.91606  0.75732  1.0000
  C   C251      1.0  0.00021  0.01335  0.75833  1.0000
  C   C252      1.0  0.99991  0.98038  0.75837  1.0000
  C   C253      1.0  0.50036  0.57664  0.73783  1.0000
  C   C254      1.0  0.50180  0.41558  0.74961  1.0000
  C   C255      1.0  0.50114  0.51252  0.73871  1.0000
  C   C256      1.0  0.50139  0.47957  0.74118  1.0000
  S   S1        1.0  0.27447  0.81355  0.97227  1.0000
  S   S2        1.0  0.73339  0.19167  0.08285  1.0000
  S   S3        1.0  0.71828  0.81163  0.53417  1.0000
  S   S4        1.0  0.26269  0.18603  0.40610  1.0000
  S   S5        1.0  0.28156  0.81047  0.47429  1.0000
  S   S6        1.0  0.73644  0.18915  0.57525  1.0000
  S   S7        1.0  0.72020  0.81355  0.03525  1.0000
  S   S8        1.0  0.26529  0.18356  0.90436  1.0000
  N   N1        1.0  0.40092  0.36811  0.14030  1.0000
  N   N2        1.0  0.60116  0.63185  0.15519  1.0000
  N   N3        1.0  0.59616  0.36869  0.34856  1.0000
  N   N4        1.0  0.39781  0.63381  0.32503  1.0000
  N   N5        1.0  0.89525  0.86476  0.33980  1.0000
  N   N6        1.0  0.09369  0.13274  0.33742  1.0000
  N   N7        1.0  0.10209  0.86440  0.18449  1.0000
  N   N8        1.0  0.90325  0.13150  0.14209  1.0000
  N   N9        1.0  0.24790  0.80402  0.06031  1.0000
  N   N10       1.0  0.75786  0.19805  0.12122  1.0000
  N   N11       1.0  0.74547  0.80457  0.45869  1.0000
  N   N12       1.0  0.23909  0.19337  0.35644  1.0000
  N   N13       1.0  0.28772  0.78560  0.03883  1.0000
  N   N14       1.0  0.71992  0.22347  0.14973  1.0000
  N   N15       1.0  0.70718  0.78249  0.46164  1.0000
  N   N16       1.0  0.27692  0.21780  0.34592  1.0000
  N   N17       1.0  0.40479  0.36359  0.65828  1.0000
  N   N18       1.0  0.60121  0.63491  0.65373  1.0000
  N   N19       1.0  0.59930  0.36760  0.84832  1.0000
  N   N20       1.0  0.39735  0.62853  0.84611  1.0000
  N   N21       1.0  0.89615  0.86489  0.83362  1.0000
  N   N22       1.0  0.09720  0.13055  0.84370  1.0000
  N   N23       1.0  0.10352  0.86610  0.67052  1.0000
  N   N24       1.0  0.90638  0.13307  0.64749  1.0000
  N   N25       1.0  0.25419  0.80420  0.54915  1.0000
  N   N26       1.0  0.76080  0.19593  0.61436  1.0000
  N   N27       1.0  0.74718  0.80529  0.95917  1.0000
  N   N28       1.0  0.24163  0.19191  0.85770  1.0000
  N   N29       1.0  0.29190  0.78065  0.54900  1.0000
  N   N30       1.0  0.72269  0.22078  0.64170  1.0000
  N   N31       1.0  0.70832  0.78481  0.96533  1.0000
  N   N32       1.0  0.27987  0.21514  0.84584  1.0000
  F   F1        1.0  0.78372  0.72113  0.10817  1.0000
  F   F2        1.0  0.21758  0.28188  0.07553  1.0000
  F   F3        1.0  0.21603  0.71660  0.41733  1.0000
  F   F4        1.0  0.78349  0.28486  0.38296  1.0000
  F   F5        1.0  0.74356  0.69691  0.12407  1.0000
  F   F6        1.0  0.25752  0.30768  0.06674  1.0000
  F   F7        1.0  0.25754  0.69838  0.40025  1.0000
  F   F8        1.0  0.74453  0.31241  0.40025  1.0000
  F   F9        1.0  0.78349  0.71824  0.63293  1.0000
  F   F10       1.0  0.21978  0.28435  0.60909  1.0000
  F   F11       1.0  0.21395  0.71970  0.89224  1.0000
  F   F12       1.0  0.78571  0.28338  0.87535  1.0000
  F   F13       1.0  0.74254  0.69871  0.61770  1.0000
  F   F14       1.0  0.25873  0.30912  0.60839  1.0000
  F   F15       1.0  0.25322  0.69547  0.89247  1.0000
  F   F16       1.0  0.74463  0.30769  0.92422  1.0000
  C   C257      1.0  0.85561  0.21549  0.30650  1.0000
  C   C258      1.0  0.83868  0.20616  0.23184  1.0000
  C  Sn1       1.0  0.83982  0.17742  0.15596  1.0000
  C  Sn2       1.0  0.85829  0.15768  0.15505  1.0000
  C   C259      1.0  0.87513  0.16721  0.23019  1.0000
  C   C260      1.0  0.87382  0.19603  0.30572  1.0000
  H   H105      1.0  0.85459  0.23778  0.36502  1.0000
  O  Te1       1.0  0.82276  0.16847  0.08189  1.0000
  O  Te2       1.0  0.85985  0.12882  0.08016  1.0000
  H   H106      1.0  0.88693  0.20323  0.36361  1.0000
  Mg  Mg1       1.0  0.79559  0.12506  0.99556  1.0000
  C   C261      1.0  0.12937  0.79439  0.38622  1.0000
  C   C262      1.0  0.12575  0.82242  0.31359  1.0000
  C  Sn3       1.0  0.14401  0.83834  0.20382  1.0000
  C  Sn4       1.0  0.16628  0.82591  0.16628  1.0000
  C   C263      1.0  0.16972  0.79784  0.23949  1.0000
  C   C264      1.0  0.15133  0.78211  0.34920  1.0000
  H   H107      1.0  0.11514  0.78220  0.47103  1.0000
  O  Te3       1.0  0.14009  0.86632  0.13241  1.0000
  O  Te4       1.0  0.18483  0.84134  0.05695  1.0000
  H   H108      1.0  0.15414  0.76040  0.40533  1.0000
  Mg  Mg2       1.0  0.13402  0.87681  0.99107  1.0000
  C   C265      1.0  0.56011  0.42561  0.90472  1.0000
  C   C266      1.0  0.54365  0.41717  0.82330  1.0000
  C  Sn5       1.0  0.54438  0.38831  0.74924  1.0000
  C  Sn6       1.0  0.56192  0.36757  0.75708  1.0000
  C   C267      1.0  0.57830  0.37622  0.83893  1.0000
  C   C268      1.0  0.57741  0.40516  0.91257  1.0000
  H   H109      1.0  0.55942  0.44799  0.96178  1.0000
  O  Te5       1.0  0.52781  0.38026  0.66834  1.0000
  O  Te6       1.0  0.56305  0.33858  0.68418  1.0000
  H   H110      1.0  0.59015  0.41168  0.97570  1.0000
  Mg  Mg3       1.0  0.53658  0.33817  0.58803  1.0000
  C   C269      1.0  0.33854  0.34288  0.13936  1.0000
  C   C270      1.0  0.32937  0.31404  0.19527  1.0000
  C  Sn7       1.0  0.34076  0.29412  0.27896  1.0000
  C  Sn8       1.0  0.36171  0.30330  0.30707  1.0000
  C   C271      1.0  0.37073  0.33221  0.25075  1.0000
  C   C272      1.0  0.35920  0.35196  0.16708  1.0000
  H   H111      1.0  0.32961  0.35817  0.07471  1.0000
  O  Te7       1.0  0.33136  0.26538  0.33393  1.0000
  O  Te8       1.0  0.37344  0.28384  0.39044  1.0000
  H   H112      1.0  0.36630  0.37429  0.12391  1.0000
  Mg  Mg4       1.0  0.35374  0.24698  0.44147  1.0000
  C   C273      1.0  0.94370  0.87026  0.18885  1.0000
  C   C274      1.0  0.92223  0.87333  0.30654  1.0000
  C  Sn9       1.0  0.91783  0.89769  0.42147  1.0000
  C  Sn10      1.0  0.93527  0.91934  0.41819  1.0000
  C   C275      1.0  0.95669  0.91608  0.29987  1.0000
  C   C276      1.0  0.96091  0.89161  0.18547  1.0000
  H   H113      1.0  0.94696  0.85134  0.10026  1.0000
  O  Te9       1.0  0.89629  0.90041  0.53826  1.0000
  O  Te10      1.0  0.93133  0.94391  0.53158  1.0000
  H   H114      1.0  0.97753  0.88925  0.09429  1.0000
  Mg  Mg5       1.0  0.89921  0.93781  0.66693  1.0000
  C   C277      1.0  0.14806  0.15367  0.82668  1.0000
  C   C278      1.0  0.12954  0.16520  0.77623  1.0000
  C  Sn11      1.0  0.13093  0.19396  0.69698  1.0000
  C  Sn12      1.0  0.15126  0.21146  0.66782  1.0000
  C   C279      1.0  0.16969  0.19971  0.71866  1.0000
  C   C280      1.0  0.16812  0.17091  0.79791  1.0000
  H   H115      1.0  0.14684  0.13138  0.88791  1.0000
  O  Te11      1.0  0.11227  0.20514  0.64745  1.0000
  O  Te12      1.0  0.15311  0.24027  0.58882  1.0000
  H   H116      1.0  0.18246  0.16198  0.83685  1.0000
  Mg  Mg6       1.0  0.12305  0.24564  0.54446  1.0000
  C   C281      1.0  0.07836  0.91033  0.07338  1.0000
  C   C282      1.0  0.08164  0.88589  0.17654  1.0000
  C  Sn13      1.0  0.06316  0.87325  0.30122  1.0000
  C  Sn14      1.0  0.04100  0.88534  0.32270  1.0000
  C   C283      1.0  0.03790  0.90977  0.21877  1.0000
  C   C284      1.0  0.05651  0.92226  0.09444  1.0000
  H   H117      1.0  0.05593  0.91807  0.97712  1.0000
  O  Te13      1.0  0.06674  0.84885  0.40323  1.0000
  O  Te14      1.0  0.02223  0.87313  0.44629  1.0000
  H   H118      1.0  0.05397  0.94117  0.01451  1.0000
  Mg  Mg7       1.0  0.03577  0.84000  0.55416  1.0000
  C   C285      1.0  0.95562  0.87917  0.68616  1.0000
  C   C286      1.0  0.95815  0.90692  0.76339  1.0000
  C  Sn15      1.0  0.93961  0.91990  0.88376  1.0000
  C  Sn16      1.0  0.91817  0.90478  0.92739  1.0000
  C   C287      1.0  0.91583  0.87702  0.84950  1.0000
  C   C288      1.0  0.93448  0.86423  0.72917  1.0000
  H   H119      1.0  0.97006  0.86927  0.59314  1.0000
  O  Te15      1.0  0.94243  0.94764  0.95965  1.0000
  O  Te16      1.0  0.93620  0.91915  0.04733  1.0000
  H   H120      1.0  0.93253  0.84274  0.66948  1.0000
  Mg  Mg8       1.0  0.94856  0.95741  0.11575  1.0000
  C   C289      1.0  0.85496  0.78989  0.14047  1.0000
  C   C290      1.0  0.83349  0.79654  0.25044  1.0000
  C  Sn17      1.0  0.83060  0.82179  0.35888  1.0000
  C  Sn18      1.0  0.84957  0.84069  0.35686  1.0000
  C   C291      1.0  0.87098  0.83385  0.24629  1.0000
  C   C292      1.0  0.87368  0.80853  0.13835  1.0000
  H   H121      1.0  0.85705  0.77031  0.05689  1.0000
  O  Te17      1.0  0.80904  0.82810  0.46800  1.0000
  O  Te18      1.0  0.84716  0.86607  0.46386  1.0000
  H   H122      1.0  0.89030  0.80339  0.05314  1.0000
  Mg  Mg9       1.0  0.81435  0.86525  0.58989  1.0000
  C   C293      1.0  0.42967  0.41816  0.07728  1.0000
  C   C294      1.0  0.42264  0.38824  0.12821  1.0000
  C  Sn19      1.0  0.43495  0.37026  0.21448  1.0000
  C  Sn20      1.0  0.45464  0.38252  0.25028  1.0000
  C   C295      1.0  0.46151  0.41248  0.19890  1.0000
  C   C296      1.0  0.44908  0.43027  0.11260  1.0000
  H   H123      1.0  0.42004  0.43193  0.01059  1.0000
  O  Te19      1.0  0.42770  0.34041  0.26440  1.0000
  O  Te20      1.0  0.46725  0.36504  0.33637  1.0000
  H   H124      1.0  0.45451  0.45344  0.07328  1.0000
  Mg  Mg10      1.0  0.45055  0.32559  0.37834  1.0000
  C   C297      1.0  0.92981  0.07945  0.07998  1.0000
  C   C298      1.0  0.92236  0.10789  0.15105  1.0000
  C  Sn21      1.0  0.93541  0.12439  0.23668  1.0000
  C  Sn22      1.0  0.95631  0.11213  0.25118  1.0000
  C   C299      1.0  0.96362  0.08367  0.17953  1.0000
  C   C300      1.0  0.95042  0.06734  0.09416  1.0000
  H   H125      1.0  0.91960  0.06682  0.01384  1.0000
  O  Te21      1.0  0.92771  0.15277  0.30700  1.0000
  O  Te22      1.0  0.96969  0.12814  0.33604  1.0000
  H   H126      1.0  0.95620  0.04533  0.03905  1.0000
  Mg  Mg11      1.0  0.95196  0.16591  0.41053  1.0000
  C   C301      1.0  0.37328  0.70381  0.10357  1.0000
  C   C302      1.0  0.37626  0.67870  0.20333  1.0000
  C  Sn23      1.0  0.35742  0.66447  0.31649  1.0000
  C  Sn24      1.0  0.33519  0.67562  0.32972  1.0000
  C   C303      1.0  0.33239  0.70073  0.22927  1.0000
  C   C304      1.0  0.35137  0.71481  0.11649  1.0000
  H   H127      1.0  0.38796  0.71469  0.01623  1.0000
  O  Te23      1.0  0.36070  0.63942  0.41526  1.0000
  O  Te24      1.0  0.31606  0.66181  0.44174  1.0000
  H   H128      1.0  0.34905  0.73424  0.03918  1.0000
  Mg  Mg12      1.0  0.32929  0.62834  0.54941  1.0000
  C   C305      1.0  0.45619  0.37392  0.77211  1.0000
  C   C306      1.0  0.46409  0.40251  0.70117  1.0000
  C  Sn25      1.0  0.45180  0.41921  0.60915  1.0000
  C  Sn26      1.0  0.43122  0.40702  0.58802  1.0000
  C   C307      1.0  0.42345  0.37842  0.65960  1.0000
  C   C308      1.0  0.43589  0.36189  0.75139  1.0000
  H   H129      1.0  0.46580  0.36114  0.84322  1.0000
  O  Te25      1.0  0.45995  0.44773  0.53906  1.0000
  O  Te26      1.0  0.41860  0.42324  0.49671  1.0000
  H   H130      1.0  0.42976  0.33977  0.80640  1.0000
  Mg  Mg13      1.0  0.43671  0.46113  0.42530  1.0000
  C   C309      1.0  0.35448  0.34458  0.65348  1.0000
  C   C310      1.0  0.37036  0.33258  0.73176  1.0000
  C  Sn27      1.0  0.36697  0.30361  0.80941  1.0000
  C  Sn28      1.0  0.34731  0.28637  0.80843  1.0000
  C   C311      1.0  0.33153  0.29857  0.72967  1.0000
  C   C312      1.0  0.33509  0.32759  0.65239  1.0000
  H   H131      1.0  0.35723  0.36702  0.59360  1.0000
  O  Te27      1.0  0.38300  0.29197  0.88710  1.0000
  O  Te28      1.0  0.34351  0.25735  0.88503  1.0000
  H   H132      1.0  0.32280  0.33686  0.59170  1.0000
  Mg  Mg14      1.0  0.37026  0.25135  0.97458  1.0000
  C   C313      1.0  0.63700  0.71157  0.35655  1.0000
  C   C314      1.0  0.65947  0.70259  0.28050  1.0000
  C  Sn29      1.0  0.66399  0.67656  0.17783  1.0000
  C  Sn30      1.0  0.64563  0.65926  0.15100  1.0000
  C   C315      1.0  0.62321  0.66844  0.22755  1.0000
  C   C316      1.0  0.61889  0.69452  0.33009  1.0000
  H   H133      1.0  0.63365  0.73175  0.43581  1.0000
  O  Te29      1.0  0.68654  0.66791  0.10288  1.0000
  O  Te30      1.0  0.64966  0.63316  0.04893  1.0000
  H   H134      1.0  0.60149  0.70148  0.38886  1.0000
  Mg  Mg15      1.0  0.64651  0.62869  0.97443  1.0000
  C   C317      1.0  0.65088  0.66271  0.63217  1.0000
  C   C318      1.0  0.62862  0.66810  0.73237  1.0000
  C  Sn31      1.0  0.62401  0.69253  0.84674  1.0000
  C  Sn32      1.0  0.64206  0.71190  0.86074  1.0000
  C   C319      1.0  0.66426  0.70633  0.75985  1.0000
  C   C320      1.0  0.66869  0.68180  0.64586  1.0000
  H   H135      1.0  0.65430  0.64374  0.54390  1.0000
  O  Te31      1.0  0.60168  0.69759  0.94593  1.0000
  O  Te32      1.0  0.63793  0.73650  0.97397  1.0000
  H   H136      1.0  0.68592  0.67765  0.56822  1.0000
  Mg  Mg16      1.0  0.64146  0.73595  0.08179  1.0000
