data_image0
_chemical_formula_structural       H48C160S8N32F8C2Sn2C2HTe2HMgC2Sn2C2HTe2HMgC2Sn2C2HTe2HMgC2Sn2C2HTe2HMgC2Sn2C2HTe2HMgC2Sn2C2HTe2HMgC2Sn2C2HTe2HMgC2Sn2C2HTe2HMgC2Sn2C2HTe2HMgC2Sn2C2HTe2HMgC2Sn2C2HTe2HMgC2Sn2C2HTe2HMgC2Sn2C2HTe2HMgC2Sn2C2HTe2HMgC2Sn2C2HTe2HMgC2Sn2C2HTe2HMgC2Sn2C2HTe2HMgC2Sn2C2HTe2HMgC2Sn2C2HTe2HMgC2Sn2C2HTe2HMgC2Sn2C2HTe2HMgC2Sn2C2HTe2HMgC2Sn2C2HTe2HMgC2Sn2C2HTe2HMgC2Sn2C2HTe2HMgC2Sn2C2HTe2HMgC2Sn2C2HTe2HMgC2Sn2C2HTe2HMgC2Sn2C2HTe2HMgC2Sn2C2HTe2HMgC2Sn2C2HTe2HMgC2Sn2C2HTe2HMg
_chemical_formula_sum              "H112 C288 S8 N32 F8 Sn64 Te64 Mg32"
_cell_length_a       60.0673
_cell_length_b       45.2101
_cell_length_c       8.07985
_cell_angle_alpha    90.6834
_cell_angle_beta     91.929
_cell_angle_gamma    90.0586

_symmetry_space_group_name_H-M    'P1'
_space_group_IT_number       1

loop_
  _space_group_symop_operation_xyz
  'x, y, z'

loop_
  _atom_site_type_symbol
  _atom_site_label
  _atom_site_symmetry_multiplicity
  _atom_site_fract_x
  _atom_site_fract_y
  _atom_site_fract_z
  _atom_site_occupancy
  H   H1        1.0  0.40649  0.33683  0.31269  1.0000
  H   H2        1.0  0.59408  0.66686  0.31417  1.0000
  H   H3        1.0  0.59502  0.33703  0.18633  1.0000
  H   H4        1.0  0.40422  0.66209  0.19727  1.0000
  H   H5        1.0  0.44377  0.47338  0.23987  1.0000
  H   H6        1.0  0.55664  0.52832  0.25488  1.0000
  H   H7        1.0  0.55701  0.47485  0.25558  1.0000
  H   H8        1.0  0.44342  0.52680  0.25805  1.0000
  H   H9        1.0  0.90585  0.83963  0.32419  1.0000
  H   H10       1.0  0.09489  0.16410  0.31873  1.0000
  H   H11       1.0  0.09398  0.83750  0.17567  1.0000
  H   H12       1.0  0.90584  0.16355  0.17129  1.0000
  H   H13       1.0  0.94343  0.97374  0.23873  1.0000
  H   H14       1.0  0.05672  0.02737  0.24735  1.0000
  H   H15       1.0  0.05670  0.97385  0.25219  1.0000
  H   H16       1.0  0.94349  0.02718  0.24959  1.0000
  H   H17       1.0  0.74421  0.69884  0.24453  1.0000
  H   H18       1.0  0.25321  0.30455  0.23624  1.0000
  H   H19       1.0  0.25431  0.69910  0.26208  1.0000
  H   H20       1.0  0.74675  0.30567  0.27730  1.0000
  H   H21       1.0  0.00012  0.10240  0.25287  1.0000
  H   H22       1.0  0.00010  0.89872  0.23952  1.0000
  H   H23       1.0  0.49965  0.60271  0.26718  1.0000
  H   H24       1.0  0.50075  0.39907  0.23965  1.0000
  H   H25       1.0  0.40411  0.34261  0.83672  1.0000
  H   H26       1.0  0.59187  0.66961  0.74657  1.0000
  H   H27       1.0  0.59409  0.33534  0.67118  1.0000
  H   H28       1.0  0.40465  0.66041  0.69055  1.0000
  H   H29       1.0  0.44384  0.47339  0.74051  1.0000
  H   H30       1.0  0.55737  0.52586  0.74810  1.0000
  H   H31       1.0  0.55714  0.47240  0.75195  1.0000
  H   H32       1.0  0.44422  0.52676  0.75510  1.0000
  H   H33       1.0  0.90728  0.83768  0.82497  1.0000
  H   H34       1.0  0.09550  0.16230  0.82587  1.0000
  H   H35       1.0  0.09550  0.83874  0.66601  1.0000
  H   H36       1.0  0.90329  0.15811  0.66259  1.0000
  H   H37       1.0  0.94435  0.97269  0.74062  1.0000
  H   H38       1.0  0.05714  0.02780  0.74960  1.0000
  H   H39       1.0  0.05762  0.97435  0.75245  1.0000
  H   H40       1.0  0.94393  0.02611  0.74968  1.0000
  H   H41       1.0  0.74491  0.70225  0.76044  1.0000
  H   H42       1.0  0.25576  0.29997  0.75654  1.0000
  H   H43       1.0  0.25255  0.69602  0.73508  1.0000
  H   H44       1.0  0.74450  0.30040  0.76140  1.0000
  H   H45       1.0  0.00003  0.10206  0.75511  1.0000
  H   H46       1.0  0.00127  0.89843  0.74517  1.0000
  H   H47       1.0  0.50130  0.60142  0.75556  1.0000
  H   H48       1.0  0.49996  0.39775  0.73508  1.0000
  C   C1        1.0  0.27006  0.26804  0.12019  1.0000
  C   C2        1.0  0.72807  0.73547  0.12034  1.0000
  C   C3        1.0  0.73050  0.26862  0.38836  1.0000
  C   C4        1.0  0.27107  0.73502  0.39322  1.0000
  C   C5        1.0  0.26627  0.23936  0.04646  1.0000
  C   C6        1.0  0.73250  0.76368  0.04879  1.0000
  C   C7        1.0  0.73466  0.23967  0.45344  1.0000
  C   C8        1.0  0.26722  0.76323  0.47032  1.0000
  C   C9        1.0  0.24423  0.22632  0.03957  1.0000
  C   C10       1.0  0.75484  0.77575  0.05200  1.0000
  C   C11       1.0  0.75671  0.22681  0.45156  1.0000
  C   C12       1.0  0.24508  0.77589  0.46991  1.0000
  C   C13       1.0  0.29146  0.28071  0.13102  1.0000
  C   C14       1.0  0.70633  0.72387  0.12318  1.0000
  C   C15       1.0  0.70899  0.28092  0.38455  1.0000
  C   C16       1.0  0.29248  0.72258  0.38618  1.0000
  C   C17       1.0  0.31004  0.29179  0.14252  1.0000
  C   C18       1.0  0.68755  0.71360  0.13029  1.0000
  C   C19       1.0  0.69026  0.29151  0.37788  1.0000
  C   C20       1.0  0.31071  0.71092  0.37348  1.0000
  C   C21       1.0  0.39524  0.34653  0.21800  1.0000
  C   C22       1.0  0.60389  0.65742  0.21386  1.0000
  C   C23       1.0  0.60543  0.34611  0.28943  1.0000
  C   C24       1.0  0.39419  0.65354  0.29753  1.0000
  C   C25       1.0  0.48013  0.43744  0.22355  1.0000
  C   C26       1.0  0.52013  0.56447  0.24248  1.0000
  C   C27       1.0  0.52101  0.43782  0.26474  1.0000
  C   C28       1.0  0.47950  0.56392  0.28173  1.0000
  C   C29       1.0  0.02075  0.03237  0.24154  1.0000
  C   C30       1.0  0.97935  0.96872  0.23575  1.0000
  C   C31       1.0  0.97944  0.03234  0.25705  1.0000
  C   C32       1.0  0.02077  0.96884  0.25377  1.0000
  C   C33       1.0  0.45948  0.48527  0.24401  1.0000
  C   C34       1.0  0.54091  0.51650  0.25350  1.0000
  C   C35       1.0  0.54114  0.48628  0.25646  1.0000
  C   C36       1.0  0.45931  0.51545  0.25649  1.0000
  C   C37       1.0  0.77333  0.76004  0.12645  1.0000
  C   C38       1.0  0.22548  0.24143  0.10706  1.0000
  C   C39       1.0  0.22628  0.76079  0.39309  1.0000
  C   C40       1.0  0.77513  0.24240  0.38410  1.0000
  C   C41       1.0  0.76798  0.73233  0.18897  1.0000
  C   C42       1.0  0.23019  0.26967  0.17162  1.0000
  C   C43       1.0  0.23113  0.73311  0.32429  1.0000
  C   C44       1.0  0.77013  0.27088  0.32884  1.0000
  C   C45       1.0  0.74643  0.72026  0.18772  1.0000
  C   C46       1.0  0.25141  0.28273  0.17947  1.0000
  C   C47       1.0  0.25243  0.72046  0.32318  1.0000
  C   C48       1.0  0.74886  0.28373  0.32894  1.0000
  C   C49       1.0  0.79475  0.77220  0.13712  1.0000
  C   C50       1.0  0.20439  0.22841  0.11322  1.0000
  C   C51       1.0  0.20501  0.77336  0.38378  1.0000
  C   C52       1.0  0.79617  0.22950  0.37096  1.0000
  C   C53       1.0  0.81295  0.78436  0.14871  1.0000
  C   C54       1.0  0.18636  0.21622  0.12686  1.0000
  C   C55       1.0  0.18671  0.78510  0.37051  1.0000
  C   C56       1.0  0.81405  0.21710  0.35353  1.0000
  C   C57       1.0  0.89511  0.84647  0.21874  1.0000
  C   C58       1.0  0.10460  0.15576  0.21519  1.0000
  C   C59       1.0  0.10442  0.84558  0.28117  1.0000
  C   C60       1.0  0.89538  0.15523  0.26960  1.0000
  C   C61       1.0  0.97956  0.93719  0.22261  1.0000
  C   C62       1.0  0.02044  0.06389  0.23201  1.0000
  C   C63       1.0  0.02049  0.93733  0.26197  1.0000
  C   C64       1.0  0.97977  0.06389  0.26965  1.0000
  C   C65       1.0  0.52066  0.53294  0.25003  1.0000
  C   C66       1.0  0.47971  0.46891  0.23836  1.0000
  C   C67       1.0  0.47935  0.53241  0.26561  1.0000
  C   C68       1.0  0.52111  0.46936  0.25802  1.0000
  C   C69       1.0  0.95925  0.98537  0.24087  1.0000
  C   C70       1.0  0.04091  0.01572  0.24629  1.0000
  C   C71       1.0  0.04092  0.98550  0.25133  1.0000
  C   C72       1.0  0.95930  0.01560  0.24987  1.0000
  C   C73       1.0  0.00012  0.07837  0.25196  1.0000
  C   C74       1.0  0.00004  0.92275  0.24094  1.0000
  C   C75       1.0  0.00008  0.01650  0.24842  1.0000
  C   C76       1.0  0.00006  0.98465  0.24606  1.0000
  C   C77       1.0  0.49975  0.57868  0.26429  1.0000
  C   C78       1.0  0.50064  0.42310  0.24202  1.0000
  C   C79       1.0  0.50010  0.51683  0.25556  1.0000
  C   C80       1.0  0.50031  0.48500  0.25061  1.0000
  C   C81       1.0  0.27112  0.26427  0.62216  1.0000
  C   C82       1.0  0.72835  0.73684  0.62174  1.0000
  C   C83       1.0  0.72901  0.26434  0.88729  1.0000
  C   C84       1.0  0.27049  0.73012  0.87401  1.0000
  C   C85       1.0  0.26633  0.23657  0.54007  1.0000
  C   C86       1.0  0.73225  0.76470  0.54426  1.0000
  C   C87       1.0  0.73374  0.23635  0.96239  1.0000
  C   C88       1.0  0.26755  0.75821  0.95503  1.0000
  C   C89       1.0  0.24395  0.22453  0.53410  1.0000
  C   C90       1.0  0.75435  0.77764  0.54672  1.0000
  C   C91       1.0  0.75602  0.22410  0.96363  1.0000
  C   C92       1.0  0.24588  0.77216  0.95777  1.0000
  C   C93       1.0  0.29282  0.27606  0.63387  1.0000
  C   C94       1.0  0.70704  0.72395  0.62285  1.0000
  C   C95       1.0  0.70727  0.27599  0.87854  1.0000
  C   C96       1.0  0.29167  0.71684  0.87020  1.0000
  C   C97       1.0  0.31134  0.28719  0.64940  1.0000
  C   C98       1.0  0.68876  0.71211  0.62876  1.0000
  C   C99       1.0  0.68847  0.28622  0.86462  1.0000
  C   C100      1.0  0.31035  0.70611  0.86748  1.0000
  C   C101      1.0  0.39413  0.34799  0.72452  1.0000
  C   C102      1.0  0.60443  0.65612  0.68467  1.0000
  C   C103      1.0  0.60448  0.34337  0.77703  1.0000
  C   C104      1.0  0.39525  0.65241  0.79557  1.0000
  C   C105      1.0  0.47973  0.43650  0.72083  1.0000
  C   C106      1.0  0.52127  0.56266  0.73156  1.0000
  C   C107      1.0  0.52070  0.43605  0.75976  1.0000
  C   C108      1.0  0.48074  0.56308  0.77457  1.0000
  C   C109      1.0  0.02116  0.03227  0.74328  1.0000
  C   C110      1.0  0.98028  0.96820  0.73817  1.0000
  C   C111      1.0  0.97985  0.03173  0.75790  1.0000
  C   C112      1.0  0.02172  0.96868  0.75620  1.0000
  C   C113      1.0  0.45973  0.48485  0.74277  1.0000
  C   C114      1.0  0.54151  0.51434  0.74639  1.0000
  C   C115      1.0  0.54138  0.48412  0.75099  1.0000
  C   C116      1.0  0.45995  0.51504  0.75330  1.0000
  C   C117      1.0  0.77300  0.76330  0.62782  1.0000
  C   C118      1.0  0.22588  0.23973  0.61044  1.0000
  C   C119      1.0  0.22665  0.75857  0.87848  1.0000
  C   C120      1.0  0.77411  0.23930  0.88870  1.0000
  C   C121      1.0  0.76801  0.73629  0.70056  1.0000
  C   C122      1.0  0.23162  0.26692  0.68424  1.0000
  C   C123      1.0  0.23064  0.73120  0.80303  1.0000
  C   C124      1.0  0.76844  0.26681  0.82206  1.0000
  C   C125      1.0  0.74683  0.72318  0.69769  1.0000
  C   C126      1.0  0.25316  0.27900  0.69145  1.0000
  C   C127      1.0  0.25145  0.71713  0.79999  1.0000
  C   C128      1.0  0.74700  0.27916  0.82066  1.0000
  C   C129      1.0  0.79431  0.77582  0.63723  1.0000
  C   C130      1.0  0.20451  0.22758  0.61637  1.0000
  C   C131      1.0  0.20564  0.77193  0.87328  1.0000
  C   C132      1.0  0.79530  0.22669  0.87796  1.0000
  C   C133      1.0  0.81282  0.78710  0.64905  1.0000
  C   C134      1.0  0.18628  0.21581  0.62776  1.0000
  C   C135      1.0  0.18736  0.78379  0.86386  1.0000
  C   C136      1.0  0.81330  0.21441  0.86359  1.0000
  C   C137      1.0  0.89647  0.84539  0.72186  1.0000
  C   C138      1.0  0.10475  0.15503  0.71753  1.0000
  C   C139      1.0  0.10543  0.84524  0.77743  1.0000
  C   C140      1.0  0.89416  0.15182  0.77258  1.0000
  C   C141      1.0  0.98070  0.93670  0.72650  1.0000
  C   C142      1.0  0.02058  0.06377  0.73286  1.0000
  C   C143      1.0  0.02164  0.93715  0.76531  1.0000
  C   C144      1.0  0.97995  0.06327  0.77120  1.0000
  C   C145      1.0  0.52144  0.53115  0.74147  1.0000
  C   C146      1.0  0.47972  0.46799  0.73575  1.0000
  C   C147      1.0  0.48020  0.53156  0.75990  1.0000
  C   C148      1.0  0.52116  0.46759  0.75278  1.0000
  C   C149      1.0  0.96005  0.98456  0.74222  1.0000
  C   C150      1.0  0.04144  0.01589  0.74839  1.0000
  C   C151      1.0  0.04171  0.98567  0.75311  1.0000
  C   C152      1.0  0.95983  0.01476  0.75022  1.0000
  C   C153      1.0  0.00018  0.07802  0.75340  1.0000
  C   C154      1.0  0.00122  0.92245  0.74552  1.0000
  C   C155      1.0  0.00063  0.01614  0.75011  1.0000
  C   C156      1.0  0.00089  0.98430  0.74829  1.0000
  C   C157      1.0  0.50111  0.57739  0.75411  1.0000
  C   C158      1.0  0.50012  0.42178  0.73797  1.0000
  C   C159      1.0  0.50071  0.51548  0.74904  1.0000
  C   C160      1.0  0.50054  0.48364  0.74578  1.0000
  S   S1        1.0  0.27169  0.80375  0.10470  1.0000
  S   S2        1.0  0.73265  0.19000  0.09949  1.0000
  S   S3        1.0  0.72984  0.81035  0.39984  1.0000
  S   S4        1.0  0.26727  0.19055  0.39322  1.0000
  S   S5        1.0  0.26974  0.80975  0.61189  1.0000
  S   S6        1.0  0.73282  0.19225  0.57828  1.0000
  S   S7        1.0  0.73092  0.81024  0.91354  1.0000
  S   S8        1.0  0.26886  0.19248  0.91038  1.0000
  N   N1        1.0  0.40035  0.36928  0.13102  1.0000
  N   N2        1.0  0.59790  0.63388  0.13104  1.0000
  N   N3        1.0  0.59985  0.36894  0.37704  1.0000
  N   N4        1.0  0.40026  0.63116  0.38679  1.0000
  N   N5        1.0  0.90035  0.86777  0.12138  1.0000
  N   N6        1.0  0.09849  0.13313  0.12473  1.0000
  N   N7        1.0  0.09901  0.86789  0.37353  1.0000
  N   N8        1.0  0.90089  0.13266  0.35940  1.0000
  N   N9        1.0  0.24596  0.79835  0.03943  1.0000
  N   N10       1.0  0.75763  0.19766  0.03853  1.0000
  N   N11       1.0  0.75522  0.80377  0.46847  1.0000
  N   N12       1.0  0.24226  0.19829  0.45351  1.0000
  N   N13       1.0  0.28375  0.77402  0.03516  1.0000
  N   N14       1.0  0.71882  0.21902  0.03648  1.0000
  N   N15       1.0  0.71674  0.78120  0.46359  1.0000
  N   N16       1.0  0.28124  0.21926  0.46364  1.0000
  N   N17       1.0  0.40001  0.36800  0.62123  1.0000
  N   N18       1.0  0.60066  0.62937  0.63166  1.0000
  N   N19       1.0  0.59898  0.36569  0.86883  1.0000
  N   N20       1.0  0.40200  0.63075  0.88780  1.0000
  N   N21       1.0  0.90172  0.86708  0.62728  1.0000
  N   N22       1.0  0.09831  0.13316  0.62246  1.0000
  N   N23       1.0  0.09977  0.86668  0.87505  1.0000
  N   N24       1.0  0.90077  0.13092  0.87092  1.0000
  N   N25       1.0  0.24428  0.80251  0.54652  1.0000
  N   N26       1.0  0.75791  0.19969  0.51892  1.0000
  N   N27       1.0  0.75620  0.80234  0.97907  1.0000
  N   N28       1.0  0.24346  0.19945  0.96526  1.0000
  N   N29       1.0  0.28282  0.78035  0.54823  1.0000
  N   N30       1.0  0.71944  0.22211  0.52261  1.0000
  N   N31       1.0  0.71726  0.78126  0.97293  1.0000
  N   N32       1.0  0.28187  0.22225  0.97659  1.0000
  F   F1        1.0  0.78460  0.71579  0.25846  1.0000
  F   F2        1.0  0.21320  0.28568  0.23369  1.0000
  F   F3        1.0  0.21428  0.71728  0.24996  1.0000
  F   F4        1.0  0.78681  0.28721  0.26648  1.0000
  F   F5        1.0  0.78461  0.72170  0.78332  1.0000
  F   F6        1.0  0.21541  0.28273  0.75824  1.0000
  F   F7        1.0  0.21318  0.71721  0.72491  1.0000
  F   F8        1.0  0.78459  0.28273  0.74981  1.0000
  C   C161      1.0  0.14293  0.21506  0.25139  1.0000
  C   C162      1.0  0.16209  0.20526  0.17417  1.0000
  C  Sn1       1.0  0.16234  0.17764  0.09479  1.0000
  C  Sn2       1.0  0.14301  0.15955  0.09284  1.0000
  C   C163      1.0  0.12392  0.16957  0.17035  1.0000
  C   C164      1.0  0.12386  0.19724  0.24947  1.0000
  H   H49       1.0  0.14288  0.23647  0.31253  1.0000
  O  Te1       1.0  0.18162  0.16818  0.01831  1.0000
  O  Te2       1.0  0.14279  0.13186  0.01435  1.0000
  H   H50       1.0  0.10902  0.20483  0.30914  1.0000
  Mg  Mg1       1.0  0.17767  0.13085  0.92750  1.0000
  C   C165      1.0  0.86783  0.79691  0.28988  1.0000
  C   C166      1.0  0.87426  0.82309  0.21457  1.0000
  C  Sn3       1.0  0.85911  0.83857  0.11334  1.0000
  C  Sn4       1.0  0.83712  0.82759  0.08730  1.0000
  C   C167      1.0  0.83084  0.80139  0.16330  1.0000
  C   C168      1.0  0.84614  0.78607  0.26432  1.0000
  H   H51       1.0  0.87966  0.78506  0.36811  1.0000
  O  Te3       1.0  0.86582  0.86469  0.03900  1.0000
  O  Te4       1.0  0.82617  0.84477  0.98677  1.0000
  H   H52       1.0  0.84114  0.76581  0.32270  1.0000
  Mg  Mg2       1.0  0.84323  0.87939  0.91258  1.0000
  C   C169      1.0  0.84023  0.16594  0.40026  1.0000
  C   C170      1.0  0.83469  0.19482  0.35510  1.0000
  C  Sn5       1.0  0.84960  0.21189  0.26751  1.0000
  C  Sn6       1.0  0.87042  0.19975  0.22448  1.0000
  C   C171      1.0  0.87581  0.17083  0.27014  1.0000
  C   C172      1.0  0.86077  0.15395  0.35781  1.0000
  H   H53       1.0  0.82860  0.15288  0.46802  1.0000
  O  Te5       1.0  0.84380  0.24071  0.22342  1.0000
  O  Te6       1.0  0.88563  0.21632  0.13692  1.0000
  H   H54       1.0  0.86506  0.13159  0.39267  1.0000
  Mg  Mg3       1.0  0.87011  0.25454  0.10471  1.0000
  C   C173      1.0  0.14851  0.84210  0.42834  1.0000
  C   C174      1.0  0.12981  0.83431  0.32973  1.0000
  C  Sn7       1.0  0.12913  0.80727  0.24423  1.0000
  C  Sn8       1.0  0.14753  0.78769  0.25799  1.0000
  C   C175      1.0  0.16615  0.79568  0.35705  1.0000
  C   C176      1.0  0.16667  0.82280  0.44203  1.0000
  H   H55       1.0  0.14891  0.86308  0.49417  1.0000
  O  Te7       1.0  0.11031  0.79984  0.14620  1.0000
  O  Te8       1.0  0.14728  0.76052  0.17392  1.0000
  H   H56       1.0  0.18114  0.82881  0.51845  1.0000
  Mg  Mg4       1.0  0.11787  0.76034  0.05561  1.0000
  C   C177      1.0  0.07324  0.08278  0.06882  1.0000
  C   C178      1.0  0.07805  0.11132  0.12812  1.0000
  C  Sn9       1.0  0.06359  0.12558  0.23487  1.0000
  C  Sn10      1.0  0.04397  0.11093  0.28295  1.0000
  C   C179      1.0  0.03932  0.08237  0.22304  1.0000
  C   C180      1.0  0.05390  0.06831  0.11624  1.0000
  H   H57       1.0  0.08906  0.07403  0.98626  1.0000
  O  Te9       1.0  0.06864  0.15409  0.29292  1.0000
  O  Te10      1.0  0.02924  0.12467  0.38955  1.0000
  H   H58       1.0  0.05018  0.04621  0.07043  1.0000
  Mg  Mg5       1.0  0.04338  0.16361  0.43561  1.0000
  C   C181      1.0  0.95459  0.88407  0.27814  1.0000
  C   C182      1.0  0.95975  0.91105  0.20594  1.0000
  C  Sn11      1.0  0.94432  0.92481  0.09905  1.0000
  C  Sn12      1.0  0.92335  0.91126  0.06407  1.0000
  C   C183      1.0  0.91833  0.88428  0.13702  1.0000
  C   C184      1.0  0.93390  0.87069  0.24375  1.0000
  H   H59       1.0  0.96662  0.87356  0.36079  1.0000
  O  Te11      1.0  0.94976  0.95176  0.02793  1.0000
  O  Te12      1.0  0.91214  0.92668  0.95775  1.0000
  H   H60       1.0  0.92989  0.84981  0.29972  1.0000
  Mg  Mg6       1.0  0.92731  0.96335  0.89105  1.0000
  C   C185      1.0  0.94469  0.12701  0.22770  1.0000
  C   C186      1.0  0.92537  0.12111  0.31329  1.0000
  C  Sn13      1.0  0.92352  0.09500  0.40264  1.0000
  C  Sn14      1.0  0.94137  0.07446  0.40616  1.0000
  C   C187      1.0  0.96063  0.08058  0.32021  1.0000
  C   C188      1.0  0.96230  0.10677  0.23116  1.0000
  H   H61       1.0  0.94599  0.14728  0.15887  1.0000
  O  Te13      1.0  0.90411  0.08946  0.48741  1.0000
  O  Te14      1.0  0.93997  0.04821  0.49452  1.0000
  H   H62       1.0  0.97726  0.11133  0.16499  1.0000
  Mg  Mg7       1.0  0.91010  0.05059  0.59021  1.0000
  C   C189      1.0  0.04569  0.88440  0.20223  1.0000
  C   C190      1.0  0.04023  0.91134  0.27707  1.0000
  C  Sn15      1.0  0.05519  0.92503  0.38996  1.0000
  C  Sn16      1.0  0.07598  0.91144  0.42833  1.0000
  C   C191      1.0  0.08129  0.88450  0.35270  1.0000
  C   C192      1.0  0.06619  0.87099  0.23996  1.0000
  H   H63       1.0  0.03402  0.87396  0.11493  1.0000
  O  Te15      1.0  0.04947  0.95193  0.46365  1.0000
  O  Te16      1.0  0.09124  0.92464  0.54066  1.0000
  H   H64       1.0  0.07043  0.85014  0.18194  1.0000
  Mg  Mg8       1.0  0.07583  0.96128  0.60886  1.0000
  C   C193      1.0  0.63372  0.70573  0.27700  1.0000
  C   C194      1.0  0.62502  0.68033  0.19858  1.0000
  C  Sn17      1.0  0.63799  0.66387  0.09071  1.0000
  C  Sn18      1.0  0.66008  0.67306  0.06108  1.0000
  C   C195      1.0  0.66863  0.69850  0.14023  1.0000
  C   C196      1.0  0.65550  0.71481  0.24790  1.0000
  H   H65       1.0  0.62356  0.71835  0.36037  1.0000
  O  Te17      1.0  0.62903  0.63855  0.01334  1.0000
  O  Te18      1.0  0.67794  0.65916  0.95391  1.0000
  H   H66       1.0  0.66225  0.73447  0.30868  1.0000
  Mg  Mg9       1.0  0.65826  0.62620  0.87777  1.0000
  C   C197      1.0  0.35537  0.28933  0.24894  1.0000
  C   C198      1.0  0.33547  0.30089  0.18269  1.0000
  C  Sn19      1.0  0.33503  0.32917  0.11481  1.0000
  C  Sn20      1.0  0.35491  0.34613  0.11336  1.0000
  C   C199      1.0  0.37473  0.33436  0.17984  1.0000
  C   C200      1.0  0.37498  0.30604  0.24750  1.0000
  H   H67       1.0  0.35557  0.26741  0.30121  1.0000
  O  Te19      1.0  0.31501  0.34038  0.04920  1.0000
  O  Te20      1.0  0.35494  0.37446  0.04624  1.0000
  H   H68       1.0  0.39039  0.29709  0.29869  1.0000
  Mg  Mg10      1.0  0.32804  0.38223  0.97164  1.0000
  C   C201      1.0  0.36540  0.70301  0.24367  1.0000
  C   C202      1.0  0.37282  0.67606  0.30787  1.0000
  C  Sn21      1.0  0.35851  0.65836  0.39704  1.0000
  C  Sn22      1.0  0.33637  0.66788  0.42217  1.0000
  C   C203      1.0  0.32909  0.69487  0.35733  1.0000
  C   C204      1.0  0.34356  0.71240  0.26834  1.0000
  H   H69       1.0  0.37658  0.71657  0.17473  1.0000
  O  Te21      1.0  0.36620  0.63151  0.46039  1.0000
  O  Te22      1.0  0.32171  0.65063  0.51077  1.0000
  H   H70       1.0  0.33780  0.73326  0.21855  1.0000
  Mg  Mg11      1.0  0.33996  0.61578  0.57274  1.0000
  C   C205      1.0  0.64938  0.34523  0.43945  1.0000
  C   C206      1.0  0.63106  0.33600  0.34079  1.0000
  C  Sn23      1.0  0.63156  0.30893  0.25576  1.0000
  C  Sn24      1.0  0.65079  0.29081  0.27006  1.0000
  C   C207      1.0  0.66902  0.30024  0.36917  1.0000
  C   C208      1.0  0.66835  0.32737  0.45367  1.0000
  H   H71       1.0  0.64885  0.36622  0.50490  1.0000
  O  Te23      1.0  0.61312  0.30005  0.15767  1.0000
  O  Te24      1.0  0.65173  0.26365  0.18648  1.0000
  H   H72       1.0  0.68253  0.33450  0.53013  1.0000
  Mg  Mg12      1.0  0.62239  0.26119  0.06787  1.0000
  C   C209      1.0  0.57276  0.58344  0.07915  1.0000
  C   C210      1.0  0.57769  0.61187  0.13955  1.0000
  C  Sn25      1.0  0.56329  0.62610  0.24686  1.0000
  C  Sn26      1.0  0.54362  0.61154  0.29441  1.0000
  C   C211      1.0  0.53885  0.58308  0.23339  1.0000
  C   C212      1.0  0.55336  0.56905  0.12603  1.0000
  H   H73       1.0  0.58853  0.57471  0.99616  1.0000
  O  Te25      1.0  0.56846  0.65452  0.30600  1.0000
  O  Te26      1.0  0.52894  0.62525  0.40155  1.0000
  H   H74       1.0  0.54955  0.54703  0.07938  1.0000
  Mg  Mg13      1.0  0.54325  0.66404  0.44909  1.0000
  C   C213      1.0  0.44507  0.37481  0.26817  1.0000
  C   C214      1.0  0.42526  0.38058  0.17873  1.0000
  C  Sn27      1.0  0.42316  0.40615  0.08411  1.0000
  C  Sn28      1.0  0.44126  0.42628  0.07915  1.0000
  C   C215      1.0  0.46101  0.42030  0.16899  1.0000
  C   C216      1.0  0.46293  0.39465  0.26330  1.0000
  H   H75       1.0  0.44656  0.35496  0.34108  1.0000
  O  Te27      1.0  0.40778  0.41371  0.99553  1.0000
  O  Te28      1.0  0.44414  0.45414  0.98555  1.0000
  H   H76       1.0  0.47827  0.39019  0.33246  1.0000
  Mg  Mg14      1.0  0.41360  0.45179  0.88611  1.0000
  C   C217      1.0  0.43678  0.57289  0.43390  1.0000
  C   C218      1.0  0.45509  0.57842  0.33651  1.0000
  C  Sn29      1.0  0.45657  0.60495  0.25057  1.0000
  C  Sn30      1.0  0.43938  0.62630  0.26264  1.0000
  C   C219      1.0  0.42115  0.62056  0.36050  1.0000
  C   C220      1.0  0.41983  0.59394  0.44593  1.0000
  H   H77       1.0  0.43577  0.55230  0.50008  1.0000
  O  Te29      1.0  0.47497  0.61011  0.15377  1.0000
  O  Te30      1.0  0.44045  0.65300  0.17810  1.0000
  H   H78       1.0  0.40566  0.58968  0.52141  1.0000
  Mg  Mg15      1.0  0.46886  0.64982  0.06192  1.0000
  C   C221      1.0  0.54631  0.38486  0.20731  1.0000
  C   C222      1.0  0.54084  0.41190  0.28091  1.0000
  C  Sn31      1.0  0.55586  0.42586  0.39223  1.0000
  C  Sn32      1.0  0.57673  0.41245  0.43030  1.0000
  C   C223      1.0  0.58204  0.38540  0.35593  1.0000
  C   C224      1.0  0.56688  0.37162  0.24475  1.0000
  H   H79       1.0  0.53459  0.37420  0.12122  1.0000
  O  Te31      1.0  0.55013  0.45287  0.46468  1.0000
  O  Te32      1.0  0.59205  0.42593  0.54109  1.0000
  H   H80       1.0  0.57113  0.35069  0.18771  1.0000
  Mg  Mg16      1.0  0.57659  0.46262  0.60799  1.0000
  C   C225      1.0  0.13304  0.20500  0.77782  1.0000
  C   C226      1.0  0.12548  0.17844  0.70561  1.0000
  C  Sn33      1.0  0.13920  0.16214  0.60235  1.0000
  C  Sn34      1.0  0.16090  0.17267  0.57106  1.0000
  C   C227      1.0  0.16832  0.19926  0.64399  1.0000
  C   C228      1.0  0.15444  0.21540  0.74708  1.0000
  H   H81       1.0  0.12231  0.21748  0.85765  1.0000
  O  Te33      1.0  0.13138  0.13565  0.53116  1.0000
  O  Te34      1.0  0.17497  0.15682  0.46840  1.0000
  H   H82       1.0  0.16031  0.23595  0.80305  1.0000
  Mg  Mg17      1.0  0.15675  0.12196  0.40006  1.0000
  C   C229      1.0  0.85751  0.78781  0.77171  1.0000
  C   C230      1.0  0.83779  0.79752  0.69344  1.0000
  C  Sn35      1.0  0.83731  0.82431  0.60900  1.0000
  C  Sn36      1.0  0.85696  0.84165  0.60299  1.0000
  C   C231      1.0  0.87661  0.83174  0.68159  1.0000
  C   C232      1.0  0.87691  0.80489  0.76579  1.0000
  H   H83       1.0  0.85775  0.76704  0.83678  1.0000
  O  Te35      1.0  0.81747  0.83369  0.53153  1.0000
  O  Te36      1.0  0.85695  0.86851  0.51941  1.0000
  H   H84       1.0  0.89218  0.79737  0.82628  1.0000
  Mg  Mg18      1.0  0.82582  0.87189  0.43316  1.0000
  C   C233      1.0  0.84045  0.16461  0.92705  1.0000
  C   C234      1.0  0.83427  0.19258  0.87004  1.0000
  C  Sn37      1.0  0.84818  0.20817  0.76667  1.0000
  C  Sn38      1.0  0.86864  0.19546  0.71967  1.0000
  C   C235      1.0  0.87467  0.16745  0.77727  1.0000
  C   C236      1.0  0.86063  0.15205  0.88071  1.0000
  H   H85       1.0  0.82506  0.15055  0.00701  1.0000
  O  Te37      1.0  0.84175  0.23610  0.71088  1.0000
  O  Te38      1.0  0.88285  0.21055  0.61643  1.0000
  H   H86       1.0  0.86542  0.13039  0.92474  1.0000
  Mg  Mg19      1.0  0.86676  0.24800  0.57249  1.0000
  C   C237      1.0  0.14891  0.84013  0.93244  1.0000
  C   C238      1.0  0.13044  0.83304  0.82971  1.0000
  C  Sn39      1.0  0.12999  0.80667  0.73777  1.0000
  C  Sn40      1.0  0.14840  0.78706  0.74918  1.0000
  C   C239      1.0  0.16679  0.79435  0.85240  1.0000
  C   C240      1.0  0.16706  0.82080  0.94382  1.0000
  H   H87       1.0  0.14459  0.85845  0.00325  1.0000
  O  Te39      1.0  0.11142  0.79993  0.63569  1.0000
  O  Te40      1.0  0.14839  0.76055  0.65869  1.0000
  H   H88       1.0  0.17683  0.82414  0.02343  1.0000
  Mg  Mg20      1.0  0.11925  0.76118  0.53674  1.0000
  C   C241      1.0  0.07332  0.08249  0.56924  1.0000
  C   C242      1.0  0.07804  0.11117  0.62659  1.0000
  C  Sn41      1.0  0.06345  0.12568  0.73137  1.0000
  C  Sn42      1.0  0.04379  0.11113  0.77945  1.0000
  C   C243      1.0  0.03923  0.08243  0.72151  1.0000
  C   C244      1.0  0.05394  0.06812  0.61666  1.0000
  H   H89       1.0  0.08470  0.07141  0.48820  1.0000
  O  Te41      1.0  0.06842  0.15434  0.78747  1.0000
  O  Te42      1.0  0.02893  0.12511  0.88411  1.0000
  H   H90       1.0  0.05028  0.04591  0.57237  1.0000
  Mg  Mg21      1.0  0.04300  0.16417  0.92794  1.0000
  C   C245      1.0  0.92655  0.91681  0.56455  1.0000
  C   C246      1.0  0.92221  0.88874  0.62656  1.0000
  C  Sn43      1.0  0.93767  0.87511  0.73378  1.0000
  C  Sn44      1.0  0.95782  0.88991  0.77959  1.0000
  C   C247      1.0  0.96200  0.91800  0.71698  1.0000
  C   C248      1.0  0.94642  0.93143  0.60972  1.0000
  H   H91       1.0  0.91449  0.92721  0.48164  1.0000
  O  Te43      1.0  0.93307  0.84705  0.79455  1.0000
  O  Te44      1.0  0.97356  0.87681  0.88661  1.0000
  H   H92       1.0  0.94978  0.95318  0.56182  1.0000
  Mg  Mg22      1.0  0.95971  0.83832  0.93675  1.0000
  C   C249      1.0  0.92640  0.08100  0.92732  1.0000
  C   C250      1.0  0.92131  0.10929  0.86949  1.0000
  C  Sn45      1.0  0.93593  0.12391  0.76721  1.0000
  C  Sn46      1.0  0.95600  0.10990  0.72217  1.0000
  C   C251      1.0  0.96094  0.08159  0.78057  1.0000
  C   C252      1.0  0.94619  0.06716  0.88290  1.0000
  H   H93       1.0  0.91046  0.06769  0.00642  1.0000
  O  Te45      1.0  0.93059  0.15217  0.71058  1.0000
  O  Te46      1.0  0.97091  0.12401  0.62005  1.0000
  H   H94       1.0  0.95013  0.04525  0.92757  1.0000
  Mg  Mg23      1.0  0.95624  0.16239  0.57433  1.0000
  C   C253      1.0  0.05581  0.87329  0.72914  1.0000
  C   C254      1.0  0.07557  0.87906  0.82014  1.0000
  C  Sn47      1.0  0.07824  0.90560  0.90895  1.0000
  C  Sn48      1.0  0.06077  0.92672  0.90641  1.0000
  C   C255      1.0  0.04107  0.92072  0.81508  1.0000
  C   C256      1.0  0.03857  0.89409  0.72662  1.0000
  H   H95       1.0  0.05388  0.85268  0.66076  1.0000
  O  Te47      1.0  0.09809  0.91102  0.99917  1.0000
  O  Te48      1.0  0.06299  0.95342  0.99411  1.0000
  H   H96       1.0  0.02327  0.88962  0.65626  1.0000
  Mg  Mg24      1.0  0.08867  0.94850  0.09863  1.0000
  C   C257      1.0  0.64969  0.65486  0.57986  1.0000
  C   C258      1.0  0.63058  0.66537  0.65493  1.0000
  C  Sn49      1.0  0.62998  0.69421  0.71873  1.0000
  C  Sn50      1.0  0.64888  0.71282  0.70694  1.0000
  C   C259      1.0  0.66791  0.70209  0.63150  1.0000
  C   C260      1.0  0.66834  0.67320  0.56812  1.0000
  H   H97       1.0  0.65002  0.63251  0.53073  1.0000
  O  Te49      1.0  0.61075  0.70436  0.79339  1.0000
  O  Te50      1.0  0.64872  0.74173  0.76961  1.0000
  H   H98       1.0  0.68314  0.66507  0.50991  1.0000
  Mg  Mg25      1.0  0.61862  0.74545  0.86029  1.0000
  C   C261      1.0  0.35539  0.29043  0.78660  1.0000
  C   C262      1.0  0.33612  0.29843  0.69643  1.0000
  C  Sn51      1.0  0.33591  0.32383  0.59956  1.0000
  C  Sn52      1.0  0.35539  0.34149  0.59304  1.0000
  C   C263      1.0  0.37460  0.33328  0.68360  1.0000
  C   C264      1.0  0.37462  0.30783  0.78018  1.0000
  H   H99       1.0  0.35541  0.27073  0.86126  1.0000
  O  Te51      1.0  0.31651  0.33152  0.51030  1.0000
  O  Te52      1.0  0.35565  0.36698  0.49717  1.0000
  H   H100      1.0  0.38955  0.30163  0.84989  1.0000
  Mg  Mg26      1.0  0.32510  0.36828  0.39761  1.0000
  C   C265      1.0  0.34053  0.65960  0.94048  1.0000
  C   C266      1.0  0.33287  0.68702  0.88453  1.0000
  C  Sn53      1.0  0.34622  0.70451  0.78657  1.0000
  C  Sn54      1.0  0.36764  0.69431  0.74401  1.0000
  C   C267      1.0  0.37515  0.66684  0.80050  1.0000
  C   C268      1.0  0.36165  0.64952  0.89850  1.0000
  H   H101      1.0  0.32556  0.64405  0.01622  1.0000
  O  Te53      1.0  0.33831  0.73185  0.73177  1.0000
  O  Te54      1.0  0.38133  0.71134  0.64622  1.0000
  H   H102      1.0  0.36759  0.62828  0.94171  1.0000
  Mg  Mg27      1.0  0.36314  0.74704  0.60154  1.0000
  C   C269      1.0  0.65987  0.33409  0.92972  1.0000
  C   C270      1.0  0.66648  0.30618  0.87381  1.0000
  C  Sn55      1.0  0.65206  0.28901  0.77297  1.0000
  C  Sn56      1.0  0.63065  0.30005  0.72743  1.0000
  C   C271      1.0  0.62420  0.32800  0.78391  1.0000
  C   C272      1.0  0.63875  0.34499  0.88480  1.0000
  H   H103      1.0  0.66660  0.34510  0.00771  1.0000
  O  Te55      1.0  0.65893  0.26118  0.71825  1.0000
  O  Te56      1.0  0.61591  0.28336  0.62672  1.0000
  H   H104      1.0  0.63363  0.36661  0.92798  1.0000
  Mg  Mg28      1.0  0.63291  0.24673  0.58340  1.0000
  C   C273      1.0  0.57439  0.58012  0.56992  1.0000
  C   C274      1.0  0.57981  0.60830  0.63192  1.0000
  C  Sn57      1.0  0.56552  0.62294  0.73836  1.0000
  C  Sn58      1.0  0.54545  0.60905  0.78339  1.0000
  C   C275      1.0  0.54019  0.58085  0.72079  1.0000
  C   C276      1.0  0.55461  0.56640  0.61432  1.0000
  H   H105      1.0  0.58555  0.56894  0.48761  1.0000
  O  Te57      1.0  0.57118  0.65110  0.79913  1.0000
  O  Te58      1.0  0.53087  0.62318  0.88962  1.0000
  H   H106      1.0  0.55042  0.54457  0.56642  1.0000
  Mg  Mg29      1.0  0.54590  0.66139  0.94009  1.0000
  C   C277      1.0  0.43565  0.42686  0.56939  1.0000
  C   C278      1.0  0.45481  0.42172  0.66776  1.0000
  C  Sn59      1.0  0.45711  0.39543  0.75578  1.0000
  C  Sn60      1.0  0.43990  0.37391  0.74481  1.0000
  C   C279      1.0  0.42081  0.37925  0.64596  1.0000
  C   C280      1.0  0.41867  0.40564  0.55845  1.0000
  H   H107      1.0  0.43400  0.44727  0.50160  1.0000
  O  Te59      1.0  0.47636  0.39066  0.85353  1.0000
  O  Te60      1.0  0.44178  0.34744  0.83142  1.0000
  H   H108      1.0  0.40384  0.40961  0.48221  1.0000
  Mg  Mg30      1.0  0.47117  0.35113  0.94823  1.0000
  C   C281      1.0  0.45510  0.61646  0.72917  1.0000
  C   C282      1.0  0.46109  0.58918  0.79684  1.0000
  C  Sn61      1.0  0.44666  0.57453  0.90046  1.0000
  C  Sn62      1.0  0.42585  0.58748  0.93675  1.0000
  C   C283      1.0  0.42001  0.61477  0.86834  1.0000
  C   C284      1.0  0.43458  0.62924  0.76485  1.0000
  H   H109      1.0  0.46637  0.62765  0.64902  1.0000
  O  Te61      1.0  0.45291  0.54730  0.96707  1.0000
  O  Te62      1.0  0.40658  0.57118  0.03989  1.0000
  H   H110      1.0  0.42993  0.65035  0.71239  1.0000
  Mg  Mg31      1.0  0.42261  0.53443  0.10085  1.0000
  C   C285      1.0  0.56401  0.42521  0.91784  1.0000
  C   C286      1.0  0.54524  0.42074  0.81360  1.0000
  C  Sn63      1.0  0.54286  0.39458  0.72085  1.0000
  C  Sn64      1.0  0.55961  0.37253  0.73298  1.0000
  C   C287      1.0  0.57832  0.37721  0.83771  1.0000
  C   C288      1.0  0.58053  0.40347  0.92992  1.0000
  H   H111      1.0  0.56572  0.44553  0.98926  1.0000
  O  Te63      1.0  0.52401  0.39047  0.61726  1.0000
  O  Te64      1.0  0.55765  0.34617  0.64172  1.0000
  H   H112      1.0  0.59053  0.40479  0.01070  1.0000
  Mg  Mg32      1.0  0.52890  0.35085  0.51773  1.0000
