data_image0
_chemical_formula_structural       H40C160S8N32F16SnCSn2CSnTe4Mg2SnCSn2CSnTe4Mg2SnCSn2CSnTe4Mg2SnCSn2CSnTe4Mg2SnCSn2CSnTe4Mg2SnCSn2CSnTe4Mg2SnCSn2CSnTe4Mg2SnCSn2CSnTe4Mg2SnCSn2CSnTe4Mg2SnCSn2CSnTe4Mg2SnCSn2CSnTe4Mg2SnCSn2CSnTe4Mg2SnCSn2CSnTe4Mg2SnCSn2CSnTe4Mg2SnCSn2CSnTe4Mg2SnCSn2CSnTe4Mg2SnCSn2CSnTe4Mg2SnCSn2CSnTe4Mg2SnCSn2CSnTe4Mg2SnCSn2CSnTe4Mg2SnCSn2CSnTe4Mg2SnCSn2CSnTe4Mg2SnCSn2CSnTe4Mg2SnCSn2CSnTe4Mg2SnCSn2CSnTe4Mg2SnCSn2CSnTe4Mg2SnCSn2CSnTe4Mg2SnCSn2CSnTe4Mg2SnCSn2CSnTe4Mg2SnCSn2CSnTe4Mg2SnCSn2CSnTe4Mg2SnCSn2CSnTe4Mg2
_chemical_formula_sum              "H40 C224 S8 N32 F16 Sn128 Te128 Mg64"
_cell_length_a       61.0828
_cell_length_b       43.6998
_cell_length_c       8.09294
_cell_angle_alpha    89.4254
_cell_angle_beta     73.86
_cell_angle_gamma    90.0582

_symmetry_space_group_name_H-M    'P1'
_space_group_IT_number       1

loop_
  _space_group_symop_operation_xyz
  'x, y, z'

loop_
  _atom_site_type_symbol
  _atom_site_label
  _atom_site_symmetry_multiplicity
  _atom_site_fract_x
  _atom_site_fract_y
  _atom_site_fract_z
  _atom_site_occupancy
  H   H1        1.0  0.39838  0.33624  0.34154  1.0000
  H   H2        1.0  0.58733  0.66415  0.34695  1.0000
  H   H3        1.0  0.59817  0.33445  0.16366  1.0000
  H   H4        1.0  0.41129  0.66294  0.11221  1.0000
  H   H5        1.0  0.44241  0.46937  0.26342  1.0000
  H   H6        1.0  0.55553  0.52448  0.20795  1.0000
  H   H7        1.0  0.55509  0.46939  0.21626  1.0000
  H   H8        1.0  0.44209  0.52449  0.27321  1.0000
  H   H9        1.0  0.90678  0.83514  0.12981  1.0000
  H   H10       1.0  0.09324  0.16530  0.14505  1.0000
  H   H11       1.0  0.08983  0.83420  0.39464  1.0000
  H   H12       1.0  0.90396  0.16461  0.32756  1.0000
  H   H13       1.0  0.94271  0.96797  0.26636  1.0000
  H   H14       1.0  0.05438  0.02447  0.24605  1.0000
  H   H15       1.0  0.05474  0.96937  0.24374  1.0000
  H   H16       1.0  0.94265  0.02310  0.25785  1.0000
  H   H17       1.0  0.99832  0.10157  0.24170  1.0000
  H   H18       1.0  0.99906  0.89078  0.25712  1.0000
  H   H19       1.0  0.49908  0.60246  0.23713  1.0000
  H   H20       1.0  0.49879  0.39155  0.23605  1.0000
  H   H21       1.0  0.40423  0.32850  0.83977  1.0000
  H   H22       1.0  0.58734  0.66374  0.86373  1.0000
  H   H23       1.0  0.60095  0.33448  0.65827  1.0000
  H   H24       1.0  0.40922  0.65666  0.62680  1.0000
  H   H25       1.0  0.44550  0.46728  0.75306  1.0000
  H   H26       1.0  0.55772  0.52484  0.70715  1.0000
  H   H27       1.0  0.55774  0.46979  0.72084  1.0000
  H   H28       1.0  0.44466  0.52243  0.75929  1.0000
  H   H29       1.0  0.90797  0.83411  0.62944  1.0000
  H   H30       1.0  0.09730  0.16212  0.64576  1.0000
  H   H31       1.0  0.09270  0.83740  0.88883  1.0000
  H   H32       1.0  0.90736  0.16730  0.82671  1.0000
  H   H33       1.0  0.94391  0.96986  0.76608  1.0000
  H   H34       1.0  0.05618  0.02347  0.75100  1.0000
  H   H35       1.0  0.05586  0.96840  0.74644  1.0000
  H   H36       1.0  0.94459  0.02499  0.76058  1.0000
  H   H37       1.0  0.00096  0.10204  0.75592  1.0000
  H   H38       1.0  0.99934  0.89116  0.75723  1.0000
  H   H39       1.0  0.49997  0.60152  0.73814  1.0000
  H   H40       1.0  0.50184  0.39074  0.75351  1.0000
  C   C1        1.0  0.26913  0.26591  0.20976  1.0000
  C   C2        1.0  0.72314  0.73774  0.28467  1.0000
  C   C3        1.0  0.72976  0.27085  0.27730  1.0000
  C   C4        1.0  0.27513  0.73976  0.22175  1.0000
  C   C5        1.0  0.26330  0.23581  0.28160  1.0000
  C   C6        1.0  0.72492  0.76565  0.37243  1.0000
  C   C7        1.0  0.73454  0.24072  0.20695  1.0000
  C   C8        1.0  0.27126  0.76728  0.13573  1.0000
  C   C9        1.0  0.24164  0.22180  0.28746  1.0000
  C   C10       1.0  0.74688  0.77824  0.37113  1.0000
  C   C11       1.0  0.75627  0.22609  0.19106  1.0000
  C   C12       1.0  0.24842  0.77777  0.14783  1.0000
  C   C13       1.0  0.28966  0.28038  0.20812  1.0000
  C   C14       1.0  0.70250  0.72503  0.27609  1.0000
  C   C15       1.0  0.70910  0.28547  0.28555  1.0000
  C   C16       1.0  0.29668  0.72855  0.21791  1.0000
  C   C17       1.0  0.30732  0.29308  0.21202  1.0000
  C   C18       1.0  0.68500  0.71325  0.26080  1.0000
  C   C19       1.0  0.69102  0.29713  0.28302  1.0000
  C   C20       1.0  0.31470  0.71704  0.22313  1.0000
  C   C21       1.0  0.39136  0.34569  0.24046  1.0000
  C   C22       1.0  0.60236  0.65466  0.25343  1.0000
  C   C23       1.0  0.60554  0.34551  0.25747  1.0000
  C   C24       1.0  0.39654  0.65534  0.21679  1.0000
  C   C25       1.0  0.47955  0.43150  0.21431  1.0000
  C   C26       1.0  0.51979  0.56245  0.21661  1.0000
  C   C27       1.0  0.51797  0.43136  0.25980  1.0000
  C   C28       1.0  0.47824  0.56250  0.25808  1.0000
  C   C29       1.0  0.01855  0.02961  0.25887  1.0000
  C   C30       1.0  0.97826  0.96326  0.26150  1.0000
  C   C31       1.0  0.97851  0.02904  0.23985  1.0000
  C   C32       1.0  0.01938  0.96373  0.24569  1.0000
  C   C33       1.0  0.45832  0.48137  0.25179  1.0000
  C   C34       1.0  0.53963  0.51257  0.21770  1.0000
  C   C35       1.0  0.53926  0.48133  0.22563  1.0000
  C   C36       1.0  0.45805  0.51261  0.26026  1.0000
  C   C37       1.0  0.76781  0.76363  0.28088  1.0000
  C   C38       1.0  0.22514  0.23742  0.22078  1.0000
  C   C39       1.0  0.22857  0.76112  0.24482  1.0000
  C   C40       1.0  0.77386  0.24087  0.24867  1.0000
  C   C41       1.0  0.76525  0.73645  0.19858  1.0000
  C   C42       1.0  0.23175  0.26627  0.14760  1.0000
  C   C43       1.0  0.23318  0.73432  0.32447  1.0000
  C   C44       1.0  0.76829  0.26978  0.31987  1.0000
  C   C45       1.0  0.74383  0.72379  0.20376  1.0000
  C   C46       1.0  0.25289  0.27991  0.14226  1.0000
  C   C47       1.0  0.25547  0.72427  0.31387  1.0000
  C   C48       1.0  0.74728  0.28426  0.33192  1.0000
  C   C49       1.0  0.78905  0.77608  0.27693  1.0000
  C   C50       1.0  0.20415  0.22436  0.22440  1.0000
  C   C51       1.0  0.20663  0.77198  0.25604  1.0000
  C   C52       1.0  0.79489  0.22728  0.23795  1.0000
  C   C53       1.0  0.80725  0.78789  0.27654  1.0000
  C   C54       1.0  0.18581  0.21282  0.22619  1.0000
  C   C55       1.0  0.18845  0.78401  0.25840  1.0000
  C   C56       1.0  0.81319  0.21514  0.23164  1.0000
  C   C57       1.0  0.89267  0.84369  0.23515  1.0000
  C   C58       1.0  0.10160  0.15610  0.23887  1.0000
  C   C59       1.0  0.10423  0.84291  0.29056  1.0000
  C   C60       1.0  0.89579  0.15549  0.23314  1.0000
  C   C61       1.0  0.97832  0.93066  0.27113  1.0000
  C   C62       1.0  0.01754  0.06228  0.27065  1.0000
  C   C63       1.0  0.01961  0.93110  0.23955  1.0000
  C   C64       1.0  0.97918  0.06169  0.22207  1.0000
  C   C65       1.0  0.51969  0.52985  0.22335  1.0000
  C   C66       1.0  0.47868  0.46411  0.23211  1.0000
  C   C67       1.0  0.47812  0.52990  0.25200  1.0000
  C   C68       1.0  0.51893  0.46404  0.24236  1.0000
  C   C69       1.0  0.95837  0.98018  0.26070  1.0000
  C   C70       1.0  0.03867  0.01247  0.25108  1.0000
  C   C71       1.0  0.03904  0.98121  0.24627  1.0000
  C   C72       1.0  0.95847  0.01142  0.25231  1.0000
  C   C73       1.0  0.99835  0.07677  0.24443  1.0000
  C   C74       1.0  0.99901  0.91567  0.25582  1.0000
  C   C75       1.0  0.99862  0.01296  0.25026  1.0000
  C   C76       1.0  0.99876  0.97999  0.25236  1.0000
  C   C77       1.0  0.49906  0.57757  0.23709  1.0000
  C   C78       1.0  0.49878  0.41640  0.23647  1.0000
  C   C79       1.0  0.49889  0.51344  0.23727  1.0000
  C   C80       1.0  0.49884  0.48049  0.23705  1.0000
  C   C81       1.0  0.27210  0.26467  0.72263  1.0000
  C   C82       1.0  0.72316  0.73941  0.78885  1.0000
  C   C83       1.0  0.73172  0.26780  0.77748  1.0000
  C   C84       1.0  0.27481  0.73588  0.72804  1.0000
  C   C85       1.0  0.26630  0.23394  0.78558  1.0000
  C   C86       1.0  0.72561  0.76714  0.87667  1.0000
  C   C87       1.0  0.73709  0.23824  0.70020  1.0000
  C   C88       1.0  0.27373  0.76415  0.63831  1.0000
  C   C89       1.0  0.24443  0.22056  0.79191  1.0000
  C   C90       1.0  0.74788  0.77885  0.87358  1.0000
  C   C91       1.0  0.75892  0.22400  0.68410  1.0000
  C   C92       1.0  0.25210  0.77760  0.63807  1.0000
  C   C93       1.0  0.29289  0.27818  0.72233  1.0000
  C   C94       1.0  0.70213  0.72765  0.78252  1.0000
  C   C95       1.0  0.71087  0.28205  0.78866  1.0000
  C   C96       1.0  0.29515  0.72234  0.73725  1.0000
  C   C97       1.0  0.31093  0.28975  0.72803  1.0000
  C   C98       1.0  0.68431  0.71618  0.77086  1.0000
  C   C99       1.0  0.69283  0.29388  0.78592  1.0000
  C   C100      1.0  0.31244  0.70969  0.75096  1.0000
  C   C101      1.0  0.39613  0.33978  0.75010  1.0000
  C   C102      1.0  0.60222  0.65635  0.76097  1.0000
  C   C103      1.0  0.60840  0.34463  0.75424  1.0000
  C   C104      1.0  0.39510  0.64938  0.73711  1.0000
  C   C105      1.0  0.48256  0.43000  0.72383  1.0000
  C   C106      1.0  0.52133  0.56211  0.71741  1.0000
  C   C107      1.0  0.52094  0.43106  0.77000  1.0000
  C   C108      1.0  0.47982  0.56095  0.75837  1.0000
  C   C109      1.0  0.02036  0.02945  0.76760  1.0000
  C   C110      1.0  0.97925  0.96410  0.76505  1.0000
  C   C111      1.0  0.98040  0.03000  0.74760  1.0000
  C   C112      1.0  0.02034  0.96367  0.75044  1.0000
  C   C113      1.0  0.46115  0.47955  0.74629  1.0000
  C   C114      1.0  0.54186  0.51265  0.71956  1.0000
  C   C115      1.0  0.54178  0.48140  0.73042  1.0000
  C   C116      1.0  0.46055  0.51078  0.75292  1.0000
  C   C117      1.0  0.76839  0.76290  0.78724  1.0000
  C   C118      1.0  0.22771  0.23723  0.73214  1.0000
  C   C119      1.0  0.23079  0.76335  0.72701  1.0000
  C   C120      1.0  0.77632  0.23916  0.74171  1.0000
  C   C121      1.0  0.76520  0.73541  0.70954  1.0000
  C   C122      1.0  0.23412  0.26683  0.67026  1.0000
  C   C123      1.0  0.23272  0.73553  0.80845  1.0000
  C   C124      1.0  0.77037  0.26770  0.81699  1.0000
  C   C125      1.0  0.74351  0.72457  0.70632  1.0000
  C   C126      1.0  0.25528  0.28008  0.66747  1.0000
  C   C127      1.0  0.25379  0.72239  0.80839  1.0000
  C   C128      1.0  0.74877  0.28107  0.83844  1.0000
  C   C129      1.0  0.78995  0.77453  0.78184  1.0000
  C   C130      1.0  0.20660  0.22444  0.73590  1.0000
  C   C131      1.0  0.20982  0.77663  0.73063  1.0000
  C   C132      1.0  0.79743  0.22584  0.73031  1.0000
  C   C133      1.0  0.80835  0.78619  0.77745  1.0000
  C   C134      1.0  0.18848  0.21238  0.73797  1.0000
  C   C135      1.0  0.19185  0.78914  0.73201  1.0000
  C   C136      1.0  0.81571  0.21407  0.72720  1.0000
  C   C137      1.0  0.89371  0.84326  0.73161  1.0000
  C   C138      1.0  0.10535  0.15355  0.74296  1.0000
  C   C139      1.0  0.10651  0.84556  0.77869  1.0000
  C   C140      1.0  0.89891  0.15732  0.73624  1.0000
  C   C141      1.0  0.97894  0.93145  0.77274  1.0000
  C   C142      1.0  0.01988  0.06212  0.78113  1.0000
  C   C143      1.0  0.02023  0.93110  0.74144  1.0000
  C   C144      1.0  0.98157  0.06267  0.73222  1.0000
  C   C145      1.0  0.52171  0.52949  0.72497  1.0000
  C   C146      1.0  0.48147  0.46269  0.73515  1.0000
  C   C147      1.0  0.48025  0.52841  0.75042  1.0000
  C   C148      1.0  0.52159  0.46368  0.74968  1.0000
  C   C149      1.0  0.95967  0.98162  0.76304  1.0000
  C   C150      1.0  0.04030  0.01183  0.75733  1.0000
  C   C151      1.0  0.04025  0.98060  0.75112  1.0000
  C   C152      1.0  0.96021  0.01289  0.75639  1.0000
  C   C153      1.0  0.00083  0.07723  0.75662  1.0000
  C   C154      1.0  0.99950  0.91606  0.75732  1.0000
  C   C155      1.0  0.00021  0.01335  0.75833  1.0000
  C   C156      1.0  0.99991  0.98038  0.75837  1.0000
  C   C157      1.0  0.50036  0.57664  0.73783  1.0000
  C   C158      1.0  0.50180  0.41558  0.74961  1.0000
  C   C159      1.0  0.50114  0.51252  0.73871  1.0000
  C   C160      1.0  0.50139  0.47957  0.74118  1.0000
  S   S1        1.0  0.27447  0.81355  0.97227  1.0000
  S   S2        1.0  0.73339  0.19167  0.08285  1.0000
  S   S3        1.0  0.71828  0.81163  0.53417  1.0000
  S   S4        1.0  0.26269  0.18603  0.40610  1.0000
  S   S5        1.0  0.28156  0.81047  0.47429  1.0000
  S   S6        1.0  0.73644  0.18915  0.57525  1.0000
  S   S7        1.0  0.72020  0.81355  0.03525  1.0000
  S   S8        1.0  0.26529  0.18356  0.90436  1.0000
  N   N1        1.0  0.40092  0.36811  0.14030  1.0000
  N   N2        1.0  0.60116  0.63185  0.15519  1.0000
  N   N3        1.0  0.59616  0.36869  0.34856  1.0000
  N   N4        1.0  0.39781  0.63381  0.32503  1.0000
  N   N5        1.0  0.89525  0.86476  0.33980  1.0000
  N   N6        1.0  0.09369  0.13274  0.33742  1.0000
  N   N7        1.0  0.10209  0.86440  0.18449  1.0000
  N   N8        1.0  0.90325  0.13150  0.14209  1.0000
  N   N9        1.0  0.24790  0.80402  0.06031  1.0000
  N   N10       1.0  0.75786  0.19805  0.12122  1.0000
  N   N11       1.0  0.74547  0.80457  0.45869  1.0000
  N   N12       1.0  0.23909  0.19337  0.35644  1.0000
  N   N13       1.0  0.28772  0.78560  0.03883  1.0000
  N   N14       1.0  0.71992  0.22347  0.14973  1.0000
  N   N15       1.0  0.70718  0.78249  0.46164  1.0000
  N   N16       1.0  0.27692  0.21780  0.34592  1.0000
  N   N17       1.0  0.40479  0.36359  0.65828  1.0000
  N   N18       1.0  0.60121  0.63491  0.65373  1.0000
  N   N19       1.0  0.59930  0.36760  0.84832  1.0000
  N   N20       1.0  0.39735  0.62853  0.84611  1.0000
  N   N21       1.0  0.89615  0.86489  0.83362  1.0000
  N   N22       1.0  0.09720  0.13055  0.84370  1.0000
  N   N23       1.0  0.10352  0.86610  0.67052  1.0000
  N   N24       1.0  0.90638  0.13307  0.64749  1.0000
  N   N25       1.0  0.25419  0.80420  0.54915  1.0000
  N   N26       1.0  0.76080  0.19593  0.61436  1.0000
  N   N27       1.0  0.74718  0.80529  0.95917  1.0000
  N   N28       1.0  0.24163  0.19191  0.85770  1.0000
  N   N29       1.0  0.29190  0.78065  0.54900  1.0000
  N   N30       1.0  0.72269  0.22078  0.64170  1.0000
  N   N31       1.0  0.70832  0.78481  0.96533  1.0000
  N   N32       1.0  0.27987  0.21514  0.84584  1.0000
  F   F1        1.0  0.78372  0.72113  0.10817  1.0000
  F   F2        1.0  0.21758  0.28188  0.07553  1.0000
  F   F3        1.0  0.21603  0.71660  0.41733  1.0000
  F   F4        1.0  0.78349  0.28486  0.38296  1.0000
  F   F5        1.0  0.74356  0.69691  0.12407  1.0000
  F   F6        1.0  0.25752  0.30768  0.06674  1.0000
  F   F7        1.0  0.25754  0.69838  0.40025  1.0000
  F   F8        1.0  0.74453  0.31241  0.40025  1.0000
  F   F9        1.0  0.78349  0.71824  0.63293  1.0000
  F   F10       1.0  0.21978  0.28435  0.60909  1.0000
  F   F11       1.0  0.21395  0.71970  0.89224  1.0000
  F   F12       1.0  0.78571  0.28338  0.87535  1.0000
  F   F13       1.0  0.74254  0.69871  0.61770  1.0000
  F   F14       1.0  0.25873  0.30912  0.60839  1.0000
  F   F15       1.0  0.25322  0.69547  0.89247  1.0000
  F   F16       1.0  0.74463  0.30769  0.92422  1.0000
  C  Sn1       1.0  0.15841  0.16081  0.26434  1.0000
  C   C161      1.0  0.16630  0.18975  0.19929  1.0000
  C  Sn2       1.0  0.15124  0.21143  0.16597  1.0000
  C  Sn3       1.0  0.12780  0.20404  0.19845  1.0000
  C   C162      1.0  0.11992  0.17512  0.26348  1.0000
  C  Sn4       1.0  0.13497  0.15342  0.29682  1.0000
  O  Te1       1.0  0.17377  0.13949  0.29671  1.0000
  O  Te2       1.0  0.15953  0.24020  0.10090  1.0000
  O  Te3       1.0  0.11243  0.22538  0.16602  1.0000
  O  Te4       1.0  0.12669  0.12466  0.36187  1.0000
  Mg  Mg1       1.0  0.13192  0.26149  0.07772  1.0000
  Mg  Mg2       1.0  0.15428  0.10336  0.38518  1.0000
  C  Sn5       1.0  0.86500  0.80433  0.10743  1.0000
  C   C163      1.0  0.86927  0.82989  0.19629  1.0000
  C  Sn6       1.0  0.85274  0.84030  0.34102  1.0000
  C  Sn7       1.0  0.83152  0.82481  0.39821  1.0000
  C   C164      1.0  0.82726  0.79926  0.30939  1.0000
  C  Sn8       1.0  0.84377  0.78884  0.16462  1.0000
  O  Te5       1.0  0.84493  0.79242  0.96307  1.0000
  O  Te6       1.0  0.85740  0.86591  0.42770  1.0000
  O  Te7       1.0  0.81475  0.83483  0.54269  1.0000
  O  Te8       1.0  0.83912  0.76324  0.07798  1.0000
  Mg  Mg3       1.0  0.82914  0.87076  0.61762  1.0000
  Mg  Mg4       1.0  0.83054  0.75646  0.88811  1.0000
  C  Sn9       1.0  0.85725  0.16184  0.10190  1.0000
  C   C165      1.0  0.87483  0.17269  0.16544  1.0000
  C  Sn10      1.0  0.87118  0.19749  0.27726  1.0000
  C  Sn11      1.0  0.84951  0.21174  0.32669  1.0000
  C   C166      1.0  0.83195  0.20089  0.26319  1.0000
  C  Sn12      1.0  0.83558  0.17609  0.15134  1.0000
  O  Te9       1.0  0.82444  0.13511  0.99027  1.0000
  O  Te10      1.0  0.88902  0.20794  0.33905  1.0000
  O  Te11      1.0  0.84550  0.23658  0.43841  1.0000
  O  Te12      1.0  0.81775  0.16564  0.08959  1.0000
  Mg  Mg5       1.0  0.87517  0.24246  0.48815  1.0000
  Mg  Mg6       1.0  0.79475  0.12920  0.94055  1.0000
  C  Sn13      1.0  0.13070  0.80164  0.42179  1.0000
  C   C167      1.0  0.12726  0.82806  0.33370  1.0000
  C  Sn14      1.0  0.14434  0.83889  0.19193  1.0000
  C  Sn15      1.0  0.16529  0.82296  0.13698  1.0000
  C   C168      1.0  0.16872  0.79655  0.22503  1.0000
  C  Sn16      1.0  0.15165  0.78571  0.36684  1.0000
  O  Te13      1.0  0.11339  0.79123  0.56318  1.0000
  O  Te14      1.0  0.14051  0.86536  0.10596  1.0000
  O  Te15      1.0  0.14578  0.83148  0.99547  1.0000
  O  Te16      1.0  0.15547  0.75925  0.45277  1.0000
  Mg  Mg7       1.0  0.13246  0.86858  0.92040  1.0000
  Mg  Mg8       1.0  0.12670  0.75409  0.63827  1.0000
  C  Sn17      1.0  0.04634  0.11444  0.19235  1.0000
  C   C169      1.0  0.04054  0.08462  0.25266  1.0000
  C  Sn18      1.0  0.04981  0.07170  0.37666  1.0000
  C  Sn19      1.0  0.06519  0.08896  0.44182  1.0000
  C   C170      1.0  0.07098  0.11877  0.38153  1.0000
  C  Sn20      1.0  0.06172  0.13171  0.25751  1.0000
  O  Te17      1.0  0.03687  0.12690  0.06836  1.0000
  O  Te18      1.0  0.04376  0.04183  0.43493  1.0000
  O  Te19      1.0  0.07466  0.07648  0.56590  1.0000
  O  Te20      1.0  0.06776  0.16155  0.19926  1.0000
  Mg  Mg9       1.0  0.06117  0.03493  0.60491  1.0000
  Mg  Mg10      1.0  0.05036  0.16849  0.02937  1.0000
  C  Sn21      1.0  0.91879  0.91448  0.39560  1.0000
  C   C171      1.0  0.91596  0.88833  0.30559  1.0000
  C  Sn22      1.0  0.93485  0.87117  0.21826  1.0000
  C  Sn23      1.0  0.95702  0.88034  0.22102  1.0000
  C   C172      1.0  0.95984  0.90647  0.31101  1.0000
  C  Sn24      1.0  0.94097  0.92365  0.39836  1.0000
  O  Te21      1.0  0.89967  0.93128  0.48200  1.0000
  O  Te22      1.0  0.93159  0.84511  0.12911  1.0000
  O  Te23      1.0  0.97615  0.86351  0.13452  1.0000
  O  Te24      1.0  0.94421  0.94968  0.48749  1.0000
  Mg  Mg11      1.0  0.96297  0.82975  0.03132  1.0000
  Mg  Mg12      1.0  0.91285  0.96505  0.58540  1.0000
  C  Sn25      1.0  0.92599  0.07753  0.13556  1.0000
  C   C173      1.0  0.92016  0.10730  0.19229  1.0000
  C  Sn26      1.0  0.93617  0.12632  0.23426  1.0000
  C  Sn27      1.0  0.95848  0.11536  0.21911  1.0000
  C   C174      1.0  0.96431  0.08560  0.16238  1.0000
  C  Sn28      1.0  0.94831  0.06656  0.12041  1.0000
  O  Te25      1.0  0.90972  0.05891  0.09430  1.0000
  O  Te26      1.0  0.92994  0.15600  0.29075  1.0000
  O  Te27      1.0  0.97476  0.13400  0.26043  1.0000
  O  Te28      1.0  0.95453  0.03690  0.06392  1.0000
  Mg  Mg13      1.0  0.95812  0.17267  0.33151  1.0000
  Mg  Mg14      1.0  0.92637  0.02022  0.02304  1.0000
  C  Sn29      1.0  0.05319  0.86600  0.28353  1.0000
  C   C175      1.0  0.07526  0.87131  0.17830  1.0000
  C  Sn30      1.0  0.08115  0.89970  0.09709  1.0000
  C  Sn31      1.0  0.06464  0.92327  0.12164  1.0000
  C   C176      1.0  0.04259  0.91795  0.22684  1.0000
  C  Sn32      1.0  0.03669  0.88957  0.30808  1.0000
  O  Te29      1.0  0.04768  0.83744  0.36345  1.0000
  O  Te30      1.0  0.06648  0.90256  0.99244  1.0000
  O  Te31      1.0  0.07017  0.95184  0.04161  1.0000
  O  Te32      1.0  0.01454  0.88479  0.41270  1.0000
  Mg  Mg15      1.0  0.06576  0.94535  0.91136  1.0000
  Mg  Mg16      1.0  0.01524  0.84203  0.49390  1.0000
  C  Sn33      1.0  0.65040  0.65427  0.18626  1.0000
  C   C177      1.0  0.62810  0.66323  0.26810  1.0000
  C  Sn34      1.0  0.62362  0.69281  0.33232  1.0000
  C  Sn35      1.0  0.64183  0.71389  0.31427  1.0000
  C   C178      1.0  0.66412  0.70494  0.23245  1.0000
  C  Sn36      1.0  0.66861  0.67536  0.16821  1.0000
  O  Te33      1.0  0.65448  0.62458  0.12303  1.0000
  O  Te34      1.0  0.60118  0.70122  0.41370  1.0000
  O  Te35      1.0  0.63773  0.74360  0.37759  1.0000
  O  Te36      1.0  0.69103  0.66694  0.08685  1.0000
  Mg  Mg17      1.0  0.60427  0.74425  0.47841  1.0000
  Mg  Mg18      1.0  0.68796  0.62393  0.02201  1.0000
  C  Sn37      1.0  0.36222  0.29510  0.26284  1.0000
  C   C179      1.0  0.37109  0.32398  0.20463  1.0000
  C  Sn38      1.0  0.35717  0.34642  0.16305  1.0000
  C  Sn39      1.0  0.33389  0.33986  0.18011  1.0000
  C   C180      1.0  0.32503  0.31100  0.23832  1.0000
  C  Sn40      1.0  0.33894  0.28855  0.27990  1.0000
  O  Te37      1.0  0.37644  0.27302  0.30367  1.0000
  O  Te38      1.0  0.36643  0.37512  0.10506  1.0000
  O  Te39      1.0  0.31967  0.36197  0.13921  1.0000
  O  Te40      1.0  0.32970  0.25986  0.33788  1.0000
  Mg  Mg19      1.0  0.34019  0.39764  0.06560  1.0000
  Mg  Mg20      1.0  0.35591  0.23733  0.37746  1.0000
  C  Sn41      1.0  0.34842  0.65728  0.29947  1.0000
  C   C181      1.0  0.37078  0.66505  0.20932  1.0000
  C  Sn42      1.0  0.37587  0.69420  0.13623  1.0000
  C  Sn43      1.0  0.35824  0.71605  0.15368  1.0000
  C   C182      1.0  0.33590  0.70828  0.24380  1.0000
  C  Sn44      1.0  0.33079  0.67913  0.31692  1.0000
  O  Te41      1.0  0.34373  0.62800  0.37149  1.0000
  O  Te42      1.0  0.39835  0.70143  0.04665  1.0000
  O  Te43      1.0  0.36295  0.74535  0.08156  1.0000
  O  Te44      1.0  0.30833  0.67190  0.40648  1.0000
  Mg  Mg21      1.0  0.35938  0.74241  0.97160  1.0000
  Mg  Mg22      1.0  0.31045  0.62903  0.48165  1.0000
  C  Sn45      1.0  0.64975  0.35371  0.29666  1.0000
  C   C183      1.0  0.63287  0.33931  0.23858  1.0000
  C  Sn46      1.0  0.63360  0.30776  0.21165  1.0000
  C  Sn47      1.0  0.65156  0.29023  0.24353  1.0000
  C   C184      1.0  0.66841  0.30462  0.30161  1.0000
  C  Sn48      1.0  0.66770  0.33618  0.32855  1.0000
  O  Te45      1.0  0.64868  0.38528  0.32271  1.0000
  O  Te46      1.0  0.61654  0.29388  0.15348  1.0000
  O  Te47      1.0  0.65261  0.25863  0.21742  1.0000
  O  Te48      1.0  0.68474  0.35006  0.38671  1.0000
  Mg  Mg23      1.0  0.62542  0.25021  0.13729  1.0000
  Mg  Mg24      1.0  0.67588  0.39372  0.40303  1.0000
  C  Sn49      1.0  0.54143  0.61801  0.26359  1.0000
  C   C185      1.0  0.53954  0.59135  0.17457  1.0000
  C  Sn50      1.0  0.55903  0.57550  0.08560  1.0000
  C  Sn51      1.0  0.58088  0.58651  0.08569  1.0000
  C   C186      1.0  0.58276  0.61315  0.17470  1.0000
  C  Sn52      1.0  0.56328  0.62903  0.26368  1.0000
  O  Te49      1.0  0.52171  0.63349  0.35166  1.0000
  O  Te50      1.0  0.51987  0.54699  0.99748  1.0000
  O  Te51      1.0  0.56377  0.56910  0.99751  1.0000
  O  Te52      1.0  0.56559  0.65560  0.35178  1.0000
  Mg  Mg25      1.0  0.55179  0.53394  0.89663  1.0000
  Mg  Mg26      1.0  0.53369  0.66866  0.45275  1.0000
  C  Sn53      1.0  0.43754  0.42829  0.13404  1.0000
  C   C187      1.0  0.45485  0.41794  0.20265  1.0000
  C  Sn54      1.0  0.45687  0.38681  0.23618  1.0000
  C  Sn55      1.0  0.44127  0.36557  0.20029  1.0000
  C   C188      1.0  0.42397  0.37592  0.13170  1.0000
  C  Sn56      1.0  0.42194  0.40705  0.09816  1.0000
  O  Te53      1.0  0.43585  0.45952  0.10153  1.0000
  O  Te54      1.0  0.47431  0.37701  0.30483  1.0000
  O  Te55      1.0  0.44297  0.33432  0.23287  1.0000
  O  Te56      1.0  0.40452  0.41685  0.02951  1.0000
  Mg  Mg27      1.0  0.46960  0.33216  0.32672  1.0000
  Mg  Mg28      1.0  0.40921  0.46169  0.00749  1.0000
  C  Sn57      1.0  0.43016  0.57169  0.37522  1.0000
  C   C189      1.0  0.45242  0.57651  0.27224  1.0000
  C  Sn58      1.0  0.45894  0.60495  0.19353  1.0000
  C  Sn59      1.0  0.44288  0.62909  0.21834  1.0000
  C   C190      1.0  0.42064  0.62427  0.32128  1.0000
  C  Sn60      1.0  0.41410  0.59583  0.40003  1.0000
  O  Te57      1.0  0.42402  0.54307  0.45266  1.0000
  O  Te58      1.0  0.48128  0.60922  0.09110  1.0000
  O  Te59      1.0  0.44904  0.65773  0.14078  1.0000
  O  Te60      1.0  0.39178  0.59156  0.50242  1.0000
  Mg  Mg29      1.0  0.48148  0.65232  0.01297  1.0000
  Mg  Mg30      1.0  0.39156  0.54847  0.58068  1.0000
  C  Sn61      1.0  0.55971  0.37242  0.20207  1.0000
  C   C191      1.0  0.57532  0.38141  0.29006  1.0000
  C  Sn62      1.0  0.57057  0.40616  0.40214  1.0000
  C  Sn63      1.0  0.54977  0.42226  0.42688  1.0000
  C   C192      1.0  0.53417  0.41327  0.33895  1.0000
  C  Sn64      1.0  0.53891  0.38852  0.22681  1.0000
  O  Te61      1.0  0.56481  0.34760  0.09066  1.0000
  O  Te62      1.0  0.58644  0.41473  0.48862  1.0000
  O  Te63      1.0  0.54468  0.44710  0.53839  1.0000
  O  Te64      1.0  0.52305  0.37995  0.14038  1.0000
  Mg  Mg31      1.0  0.57172  0.45003  0.62694  1.0000
  Mg  Mg32      1.0  0.53775  0.34464  0.00211  1.0000
  C  Sn65      1.0  0.14409  0.15947  0.87089  1.0000
  C   C193      1.0  0.12678  0.17020  0.80341  1.0000
  C  Sn66      1.0  0.13088  0.19458  0.68575  1.0000
  C  Sn67      1.0  0.15274  0.20852  0.63438  1.0000
  C   C194      1.0  0.17004  0.19779  0.70182  1.0000
  C  Sn68      1.0  0.16595  0.17341  0.81952  1.0000
  O  Te65      1.0  0.13961  0.13506  0.98834  1.0000
  O  Te66      1.0  0.11331  0.20492  0.62010  1.0000
  O  Te67      1.0  0.15721  0.23295  0.51684  1.0000
  O  Te68      1.0  0.18352  0.16307  0.88513  1.0000
  Mg  Mg33      1.0  0.12777  0.23883  0.46350  1.0000
  Mg  Mg34      1.0  0.20591  0.13106  0.04166  1.0000
  C  Sn69      1.0  0.85595  0.78416  0.69382  1.0000
  C   C195      1.0  0.83424  0.79328  0.78937  1.0000
  C  Sn70      1.0  0.83065  0.82289  0.85469  1.0000
  C  Sn71      1.0  0.84914  0.84382  0.82379  1.0000
  C   C196      1.0  0.87084  0.83470  0.72827  1.0000
  C  Sn72      1.0  0.87445  0.80509  0.66292  1.0000
  O  Te69      1.0  0.85915  0.75445  0.62974  1.0000
  O  Te70      1.0  0.80879  0.83147  0.94989  1.0000
  O  Te71      1.0  0.84592  0.87355  0.88797  1.0000
  O  Te72      1.0  0.89629  0.79651  0.56774  1.0000
  Mg  Mg35      1.0  0.84984  0.87637  0.01010  1.0000
  Mg  Mg36      1.0  0.89209  0.75353  0.50741  1.0000
  C  Sn73      1.0  0.86576  0.20289  0.84658  1.0000
  C   C197      1.0  0.87386  0.17423  0.78267  1.0000
  C  Sn74      1.0  0.86399  0.15888  0.67056  1.0000
  C  Sn75      1.0  0.84566  0.17248  0.62120  1.0000
  C   C198      1.0  0.83758  0.20113  0.68506  1.0000
  C  Sn76      1.0  0.84743  0.21649  0.79721  1.0000
  O  Te73      1.0  0.87588  0.21782  0.95850  1.0000
  O  Te74      1.0  0.87237  0.13024  0.60841  1.0000
  O  Te75      1.0  0.83554  0.15752  0.50919  1.0000
  O  Te76      1.0  0.83906  0.24511  0.85932  1.0000
  Mg  Mg37      1.0  0.85296  0.11894  0.45900  1.0000
  Mg  Mg38      1.0  0.89529  0.25835  0.00866  1.0000
  C  Sn77      1.0  0.16691  0.83923  0.66719  1.0000
  C   C199      1.0  0.17114  0.81342  0.75681  1.0000
  C  Sn78      1.0  0.15325  0.79415  0.84287  1.0000
  C  Sn79      1.0  0.13067  0.80080  0.83921  1.0000
  C   C200      1.0  0.12645  0.82660  0.74960  1.0000
  C  Sn80      1.0  0.14433  0.84588  0.66352  1.0000
  O  Te77      1.0  0.18506  0.85818  0.58205  1.0000
  O  Te78      1.0  0.15790  0.76849  0.93165  1.0000
  O  Te79      1.0  0.11253  0.78183  0.92444  1.0000
  O  Te80      1.0  0.13969  0.87153  0.57476  1.0000
  Mg  Mg39      1.0  0.16431  0.75151  0.02761  1.0000
  Mg  Mg40      1.0  0.17011  0.89042  0.47869  1.0000
  C  Sn81      1.0  0.07323  0.07730  0.86480  1.0000
  C   C201      1.0  0.07956  0.10689  0.80253  1.0000
  C  Sn82      1.0  0.06386  0.12613  0.75737  1.0000
  C  Sn83      1.0  0.04135  0.11558  0.77491  1.0000
  C   C202      1.0  0.03502  0.08601  0.83718  1.0000
  C  Sn84      1.0  0.05072  0.06675  0.88235  1.0000
  O  Te81      1.0  0.08921  0.05846  0.90918  1.0000
  O  Te82      1.0  0.07058  0.15561  0.69535  1.0000
  O  Te83      1.0  0.02536  0.13445  0.73046  1.0000
  O  Te84      1.0  0.04400  0.03729  0.94436  1.0000
  Mg  Mg41      1.0  0.04266  0.17272  0.65203  1.0000
  Mg  Mg42      1.0  0.07190  0.02017  0.98779  1.0000
  C  Sn85      1.0  0.91927  0.91480  0.89119  1.0000
  C   C203      1.0  0.91677  0.88848  0.80138  1.0000
  C  Sn86      1.0  0.93586  0.87158  0.71513  1.0000
  C  Sn87      1.0  0.95790  0.88119  0.71882  1.0000
  C   C204      1.0  0.96039  0.90750  0.80862  1.0000
  C  Sn88      1.0  0.94131  0.92441  0.89488  1.0000
  O  Te85      1.0  0.89994  0.93134  0.97650  1.0000
  O  Te86      1.0  0.93294  0.84535  0.62616  1.0000
  O  Te87      1.0  0.97723  0.86463  0.63341  1.0000
  O  Te88      1.0  0.94422  0.95062  0.98383  1.0000
  Mg  Mg43      1.0  0.96448  0.83048  0.53001  1.0000
  Mg  Mg44      1.0  0.94952  0.96741  0.08010  1.0000
  C  Sn89      1.0  0.95292  0.11475  0.80332  1.0000
  C   C205      1.0  0.95860  0.08488  0.74771  1.0000
  C  Sn90      1.0  0.94952  0.07188  0.62403  1.0000
  C  Sn91      1.0  0.93446  0.08911  0.55439  1.0000
  C   C206      1.0  0.92879  0.11897  0.60997  1.0000
  C  Sn92      1.0  0.93786  0.13198  0.73368  1.0000
  O  Te89      1.0  0.96220  0.12729  0.92708  1.0000
  O  Te90      1.0  0.95544  0.04197  0.57049  1.0000
  O  Te91      1.0  0.92518  0.07655  0.43053  1.0000
  O  Te92      1.0  0.93195  0.16187  0.78718  1.0000
  Mg  Mg45      1.0  0.93839  0.03496  0.39887  1.0000
  Mg  Mg46      1.0  0.94900  0.16892  0.95873  1.0000
  C  Sn93      1.0  0.05452  0.86621  0.77615  1.0000
  C   C207      1.0  0.07631  0.87197  0.66744  1.0000
  C  Sn94      1.0  0.08170  0.90054  0.58734  1.0000
  C  Sn95      1.0  0.06496  0.92385  0.61659  1.0000
  C   C208      1.0  0.04318  0.91809  0.72527  1.0000
  C  Sn96      1.0  0.03778  0.88953  0.80540  1.0000
  O  Te93      1.0  0.04951  0.83749  0.85487  1.0000
  O  Te94      1.0  0.10360  0.90574  0.47916  1.0000
  O  Te95      1.0  0.06999  0.95259  0.53775  1.0000
  O  Te96      1.0  0.01590  0.88431  0.91355  1.0000
  Mg  Mg47      1.0  0.10221  0.94862  0.40145  1.0000
  Mg  Mg48      1.0  0.01727  0.84145  0.99139  1.0000
  C  Sn97      1.0  0.65023  0.65782  0.68287  1.0000
  C   C209      1.0  0.62790  0.66563  0.77142  1.0000
  C  Sn98      1.0  0.62312  0.69434  0.84715  1.0000
  C  Sn99      1.0  0.64104  0.71570  0.83402  1.0000
  C   C210      1.0  0.66335  0.70789  0.74548  1.0000
  C  Sn100     1.0  0.66814  0.67918  0.66973  1.0000
  O  Te97      1.0  0.65461  0.62900  0.60815  1.0000
  O  Te98      1.0  0.60066  0.70162  0.93507  1.0000
  O  Te99      1.0  0.63664  0.74454  0.90883  1.0000
  O  Te100     1.0  0.69059  0.67191  0.58184  1.0000
  Mg  Mg49      1.0  0.64011  0.74569  0.01505  1.0000
  Mg  Mg50      1.0  0.68799  0.62976  0.50174  1.0000
  C  Sn101     1.0  0.34811  0.29021  0.86274  1.0000
  C   C211      1.0  0.33214  0.30316  0.78851  1.0000
  C  Sn102     1.0  0.33814  0.32799  0.67467  1.0000
  C  Sn103     1.0  0.36057  0.34011  0.63408  1.0000
  C   C212      1.0  0.37653  0.32716  0.70826  1.0000
  C  Sn104     1.0  0.37055  0.30233  0.82214  1.0000
  O  Te101     1.0  0.34173  0.26540  0.97619  1.0000
  O  Te102     1.0  0.32187  0.34055  0.60213  1.0000
  O  Te103     1.0  0.36694  0.36494  0.52052  1.0000
  O  Te104     1.0  0.38680  0.28977  0.89464  1.0000
  Mg  Mg51      1.0  0.33875  0.37415  0.45470  1.0000
  Mg  Mg52      1.0  0.40677  0.25807  0.04201  1.0000
  C  Sn105     1.0  0.33698  0.67050  0.90938  1.0000
  C   C213      1.0  0.33389  0.69533  0.80812  1.0000
  C  Sn106     1.0  0.35106  0.70383  0.66101  1.0000
  C  Sn107     1.0  0.37174  0.68715  0.61406  1.0000
  C   C214      1.0  0.37481  0.66233  0.71526  1.0000
  C  Sn108     1.0  0.35765  0.65382  0.86242  1.0000
  O  Te105     1.0  0.35641  0.66431  0.05589  1.0000
  O  Te106     1.0  0.34759  0.72874  0.56184  1.0000
  O  Te107     1.0  0.38914  0.69526  0.46741  1.0000
  O  Te108     1.0  0.36112  0.62891  0.96154  1.0000
  Mg  Mg53      1.0  0.37634  0.73090  0.37382  1.0000
  Mg  Mg54      1.0  0.36920  0.62864  0.14953  1.0000
  C  Sn109     1.0  0.63773  0.29440  0.73703  1.0000
  C   C215      1.0  0.62868  0.32307  0.79294  1.0000
  C  Sn110     1.0  0.64248  0.34580  0.83213  1.0000
  C  Sn111     1.0  0.66581  0.33977  0.81499  1.0000
  C   C216      1.0  0.67485  0.31113  0.75908  1.0000
  C  Sn112     1.0  0.66107  0.28837  0.71988  1.0000
  O  Te109     1.0  0.62362  0.27201  0.69856  1.0000
  O  Te110     1.0  0.63305  0.37428  0.88785  1.0000
  O  Te111     1.0  0.67992  0.36219  0.85352  1.0000
  O  Te112     1.0  0.67049  0.25991  0.66417  1.0000
  Mg  Mg55      1.0  0.65917  0.39738  0.92456  1.0000
  Mg  Mg56      1.0  0.64439  0.23681  0.62734  1.0000
  C  Sn113     1.0  0.56937  0.57213  0.60600  1.0000
  C   C217      1.0  0.54693  0.57670  0.70491  1.0000
  C  Sn114     1.0  0.54017  0.60509  0.77949  1.0000
  C  Sn115     1.0  0.55618  0.62943  0.75462  1.0000
  C   C218      1.0  0.57860  0.62486  0.65574  1.0000
  C  Sn116     1.0  0.58537  0.59647  0.58113  1.0000
  O  Te113     1.0  0.57575  0.54356  0.53264  1.0000
  O  Te114     1.0  0.51765  0.60910  0.87789  1.0000
  O  Te115     1.0  0.54978  0.65801  0.82808  1.0000
  O  Te116     1.0  0.60788  0.59246  0.48276  1.0000
  Mg  Mg57      1.0  0.51716  0.65223  0.95131  1.0000
  Mg  Mg58      1.0  0.60839  0.54934  0.40921  1.0000
  C  Sn117     1.0  0.43737  0.40727  0.54370  1.0000
  C   C219      1.0  0.42973  0.37878  0.61749  1.0000
  C  Sn118     1.0  0.43855  0.36621  0.74479  1.0000
  C  Sn119     1.0  0.45535  0.38245  0.79957  1.0000
  C   C220      1.0  0.46298  0.41092  0.72582  1.0000
  C  Sn120     1.0  0.45418  0.42351  0.59848  1.0000
  O  Te117     1.0  0.42832  0.41940  0.41665  1.0000
  O  Te118     1.0  0.43064  0.33769  0.81662  1.0000
  O  Te119     1.0  0.46440  0.37030  0.92673  1.0000
  O  Te120     1.0  0.46207  0.45201  0.52670  1.0000
  Mg  Mg59      1.0  0.44818  0.33072  0.98568  1.0000
  Mg  Mg60      1.0  0.44453  0.45902  0.35770  1.0000
  C  Sn121     1.0  0.43163  0.56771  0.88265  1.0000
  C   C221      1.0  0.45352  0.57363  0.77598  1.0000
  C  Sn122     1.0  0.45905  0.60244  0.69927  1.0000
  C  Sn123     1.0  0.44235  0.62582  0.72989  1.0000
  C   C222      1.0  0.42048  0.61989  0.83652  1.0000
  C  Sn124     1.0  0.41493  0.59109  0.91326  1.0000
  O  Te121     1.0  0.42648  0.53874  0.95800  1.0000
  O  Te122     1.0  0.48104  0.60782  0.59309  1.0000
  O  Te123     1.0  0.44752  0.65481  0.65443  1.0000
  O  Te124     1.0  0.42979  0.58761  0.01941  1.0000
  Mg  Mg61      1.0  0.47983  0.65100  0.51983  1.0000
  Mg  Mg62      1.0  0.43098  0.54445  0.09280  1.0000
  C  Sn125     1.0  0.56249  0.37202  0.70734  1.0000
  C   C223      1.0  0.57852  0.38085  0.79188  1.0000
  C  Sn126     1.0  0.57430  0.40579  0.90280  1.0000
  C  Sn127     1.0  0.55362  0.42223  0.92989  1.0000
  C   C224      1.0  0.53760  0.41340  0.84540  1.0000
  C  Sn128     1.0  0.54181  0.38847  0.73442  1.0000
  O  Te125     1.0  0.56707  0.34702  0.59703  1.0000
  O  Te126     1.0  0.59059  0.41419  0.98583  1.0000
  O  Te127     1.0  0.58588  0.44916  0.04030  1.0000
  O  Te128     1.0  0.52553  0.38006  0.65146  1.0000
  Mg  Mg63      1.0  0.61335  0.45177  0.12389  1.0000
  Mg  Mg64      1.0  0.53958  0.34439  0.51345  1.0000
