data_image0
_chemical_formula_structural       H112C256S8N32F8SnCSn2CSnTe4Mg2SnCSn2CSnTe4Mg2SnCSn2CSnTe4Mg2SnCSn2CSnTe4Mg2SnCSn2CSnTe4Mg2SnCSn2CSnTe4Mg2SnCSn2CSnTe4Mg2SnCSn2CSnTe4Mg2SnCSn2CSnTe4Mg2SnCSn2CSnTe4Mg2SnCSn2CSnTe4Mg2SnCSn2CSnTe4Mg2SnCSn2CSnTe4Mg2SnCSn2CSnTe4Mg2SnCSn2CSnTe4Mg2SnCSn2CSnTe4Mg2
_chemical_formula_sum              "H112 C288 S8 N32 F8 Sn64 Te64 Mg32"
_cell_length_a       60.0673
_cell_length_b       45.2101
_cell_length_c       8.07985
_cell_angle_alpha    90.6834
_cell_angle_beta     91.929
_cell_angle_gamma    90.0586

_symmetry_space_group_name_H-M    'P1'
_space_group_IT_number       1

loop_
  _space_group_symop_operation_xyz
  'x, y, z'

loop_
  _atom_site_type_symbol
  _atom_site_label
  _atom_site_symmetry_multiplicity
  _atom_site_fract_x
  _atom_site_fract_y
  _atom_site_fract_z
  _atom_site_occupancy
  H   H1        1.0  0.15154  0.23659  0.29233  1.0000
  H   H2        1.0  0.84934  0.76661  0.32068  1.0000
  H   H3        1.0  0.84960  0.23696  0.19660  1.0000
  H   H4        1.0  0.11611  0.20962  0.33268  1.0000
  H   H5        1.0  0.88493  0.79451  0.35425  1.0000
  H   H6        1.0  0.88481  0.20928  0.15656  1.0000
  H   H7        1.0  0.13948  0.13646  0.04134  1.0000
  H   H8        1.0  0.85854  0.86316  0.04040  1.0000
  H   H9        1.0  0.85931  0.13591  0.42681  1.0000
  H   H10       1.0  0.17566  0.16279  0.00695  1.0000
  H   H11       1.0  0.82225  0.83601  0.01314  1.0000
  H   H12       1.0  0.82341  0.16307  0.46060  1.0000
  H   H13       1.0  0.40649  0.33683  0.31269  1.0000
  H   H14       1.0  0.59408  0.66686  0.31417  1.0000
  H   H15       1.0  0.59502  0.33703  0.18633  1.0000
  H   H16       1.0  0.40422  0.66209  0.19727  1.0000
  H   H17       1.0  0.90860  0.91743  0.98620  1.0000
  H   H18       1.0  0.91005  0.08301  0.49315  1.0000
  H   H19       1.0  0.09035  0.91762  0.51115  1.0000
  H   H20       1.0  0.94262  0.94825  0.02029  1.0000
  H   H21       1.0  0.94405  0.05264  0.46653  1.0000
  H   H22       1.0  0.05654  0.94857  0.47190  1.0000
  H   H23       1.0  0.97115  0.88325  0.34947  1.0000
  H   H24       1.0  0.97056  0.11802  0.14331  1.0000
  H   H25       1.0  0.02942  0.88371  0.12672  1.0000
  H   H26       1.0  0.93855  0.85174  0.30285  1.0000
  H   H27       1.0  0.93815  0.14919  0.18402  1.0000
  H   H28       1.0  0.06178  0.85208  0.17697  1.0000
  H   H29       1.0  0.44377  0.47338  0.23987  1.0000
  H   H30       1.0  0.55664  0.52832  0.25488  1.0000
  H   H31       1.0  0.55701  0.47485  0.25558  1.0000
  H   H32       1.0  0.44342  0.52680  0.25805  1.0000
  H   H33       1.0  0.34665  0.26792  0.28340  1.0000
  H   H34       1.0  0.38357  0.29245  0.32213  1.0000
  H   H35       1.0  0.35848  0.36930  0.06962  1.0000
  H   H36       1.0  0.32093  0.34554  0.03914  1.0000
  H   H37       1.0  0.90585  0.83963  0.32419  1.0000
  H   H38       1.0  0.09489  0.16410  0.31873  1.0000
  H   H39       1.0  0.09398  0.83750  0.17567  1.0000
  H   H40       1.0  0.90584  0.16355  0.17129  1.0000
  H   H41       1.0  0.40928  0.41761  0.98731  1.0000
  H   H42       1.0  0.40992  0.58085  0.51216  1.0000
  H   H43       1.0  0.44367  0.44794  0.01702  1.0000
  H   H44       1.0  0.44410  0.55118  0.47888  1.0000
  H   H45       1.0  0.47151  0.38416  0.35634  1.0000
  H   H46       1.0  0.46970  0.61853  0.16418  1.0000
  H   H47       1.0  0.43838  0.35329  0.31739  1.0000
  H   H48       1.0  0.43712  0.64908  0.21274  1.0000
  H   H49       1.0  0.94343  0.97374  0.23873  1.0000
  H   H50       1.0  0.05672  0.02737  0.24735  1.0000
  H   H51       1.0  0.05670  0.97385  0.25219  1.0000
  H   H52       1.0  0.94349  0.02718  0.24959  1.0000
  H   H53       1.0  0.74421  0.69884  0.24453  1.0000
  H   H54       1.0  0.25321  0.30455  0.23624  1.0000
  H   H55       1.0  0.25431  0.69910  0.26208  1.0000
  H   H56       1.0  0.74675  0.30567  0.27730  1.0000
  H   H57       1.0  0.00012  0.10240  0.25287  1.0000
  H   H58       1.0  0.00010  0.89872  0.23952  1.0000
  H   H59       1.0  0.49965  0.60271  0.26718  1.0000
  H   H60       1.0  0.50075  0.39907  0.23965  1.0000
  H   H61       1.0  0.15205  0.23522  0.80291  1.0000
  H   H62       1.0  0.15165  0.76507  0.68577  1.0000
  H   H63       1.0  0.11680  0.20801  0.84553  1.0000
  H   H64       1.0  0.11610  0.79254  0.64505  1.0000
  H   H65       1.0  0.13872  0.13709  0.53157  1.0000
  H   H66       1.0  0.14056  0.86175  0.97257  1.0000
  H   H67       1.0  0.17476  0.16359  0.49433  1.0000
  H   H68       1.0  0.17691  0.83510  0.00737  1.0000
  H   H69       1.0  0.40411  0.34261  0.83672  1.0000
  H   H70       1.0  0.59187  0.66961  0.74657  1.0000
  H   H71       1.0  0.59409  0.33534  0.67118  1.0000
  H   H72       1.0  0.40465  0.66041  0.69055  1.0000
  H   H73       1.0  0.90992  0.91648  0.49062  1.0000
  H   H74       1.0  0.94398  0.94730  0.52311  1.0000
  H   H75       1.0  0.97236  0.88306  0.85749  1.0000
  H   H76       1.0  0.93968  0.85145  0.81242  1.0000
  H   H77       1.0  0.44384  0.47339  0.74051  1.0000
  H   H78       1.0  0.55737  0.52586  0.74810  1.0000
  H   H79       1.0  0.55714  0.47240  0.75195  1.0000
  H   H80       1.0  0.44422  0.52676  0.75510  1.0000
  H   H81       1.0  0.65214  0.73635  0.75087  1.0000
  H   H82       1.0  0.34675  0.27012  0.83730  1.0000
  H   H83       1.0  0.34443  0.72842  0.70637  1.0000
  H   H84       1.0  0.65275  0.26476  0.69192  1.0000
  H   H85       1.0  0.61548  0.71150  0.77696  1.0000
  H   H86       1.0  0.38252  0.29744  0.87304  1.0000
  H   H87       1.0  0.38120  0.70456  0.67012  1.0000
  H   H88       1.0  0.61641  0.29022  0.65113  1.0000
  H   H89       1.0  0.64125  0.63247  0.55340  1.0000
  H   H90       1.0  0.35903  0.36293  0.52757  1.0000
  H   H91       1.0  0.36172  0.63247  0.97646  1.0000
  H   H92       1.0  0.63963  0.36228  0.96364  1.0000
  H   H93       1.0  0.67832  0.65698  0.53011  1.0000
  H   H94       1.0  0.32258  0.33647  0.49770  1.0000
  H   H95       1.0  0.32432  0.65563  0.00693  1.0000
  H   H96       1.0  0.67660  0.33751  0.99890  1.0000
  H   H97       1.0  0.90728  0.83768  0.82497  1.0000
  H   H98       1.0  0.09550  0.16230  0.82587  1.0000
  H   H99       1.0  0.09550  0.83874  0.66601  1.0000
  H   H100      1.0  0.90329  0.15811  0.66259  1.0000
  H   H101      1.0  0.94435  0.97269  0.74062  1.0000
  H   H102      1.0  0.05714  0.02780  0.74960  1.0000
  H   H103      1.0  0.05762  0.97435  0.75245  1.0000
  H   H104      1.0  0.94393  0.02611  0.74968  1.0000
  H   H105      1.0  0.74491  0.70225  0.76044  1.0000
  H   H106      1.0  0.25576  0.29997  0.75654  1.0000
  H   H107      1.0  0.25255  0.69602  0.73508  1.0000
  H   H108      1.0  0.74450  0.30040  0.76140  1.0000
  H   H109      1.0  0.00003  0.10206  0.75511  1.0000
  H   H110      1.0  0.00127  0.89843  0.74517  1.0000
  H   H111      1.0  0.50130  0.60142  0.75556  1.0000
  H   H112      1.0  0.49996  0.39775  0.73508  1.0000
  C   C1        1.0  0.27006  0.26804  0.12019  1.0000
  C   C2        1.0  0.72807  0.73547  0.12034  1.0000
  C   C3        1.0  0.73050  0.26862  0.38836  1.0000
  C   C4        1.0  0.27107  0.73502  0.39322  1.0000
  C   C5        1.0  0.26627  0.23936  0.04646  1.0000
  C   C6        1.0  0.73250  0.76368  0.04879  1.0000
  C   C7        1.0  0.73466  0.23967  0.45344  1.0000
  C   C8        1.0  0.26722  0.76323  0.47032  1.0000
  C   C9        1.0  0.24423  0.22632  0.03957  1.0000
  C   C10       1.0  0.75484  0.77575  0.05200  1.0000
  C   C11       1.0  0.75671  0.22681  0.45156  1.0000
  C   C12       1.0  0.24508  0.77589  0.46991  1.0000
  C   C13       1.0  0.29146  0.28071  0.13102  1.0000
  C   C14       1.0  0.70633  0.72387  0.12318  1.0000
  C   C15       1.0  0.70899  0.28092  0.38455  1.0000
  C   C16       1.0  0.29248  0.72258  0.38618  1.0000
  C   C17       1.0  0.31004  0.29179  0.14252  1.0000
  C   C18       1.0  0.68755  0.71360  0.13029  1.0000
  C   C19       1.0  0.69026  0.29151  0.37788  1.0000
  C   C20       1.0  0.31071  0.71092  0.37348  1.0000
  C   C21       1.0  0.33132  0.30507  0.15878  1.0000
  C   C22       1.0  0.14877  0.21483  0.23653  1.0000
  C   C23       1.0  0.85151  0.78757  0.25860  1.0000
  C   C24       1.0  0.85191  0.21502  0.24803  1.0000
  C   C25       1.0  0.12899  0.19966  0.25852  1.0000
  C   C26       1.0  0.87135  0.80324  0.27671  1.0000
  C   C27       1.0  0.87155  0.19947  0.22649  1.0000
  C   C28       1.0  0.12539  0.17133  0.18780  1.0000
  C   C29       1.0  0.87413  0.83051  0.19722  1.0000
  C   C30       1.0  0.87452  0.17096  0.29247  1.0000
  C   C31       1.0  0.14242  0.15829  0.09589  1.0000
  C   C32       1.0  0.85622  0.84207  0.10100  1.0000
  C   C33       1.0  0.85691  0.15800  0.37725  1.0000
  C   C34       1.0  0.16242  0.17291  0.07660  1.0000
  C   C35       1.0  0.83617  0.82700  0.08567  1.0000
  C   C36       1.0  0.83707  0.17304  0.39600  1.0000
  C   C37       1.0  0.39524  0.34653  0.21800  1.0000
  C   C38       1.0  0.60389  0.65742  0.21386  1.0000
  C   C39       1.0  0.60543  0.34611  0.28943  1.0000
  C   C40       1.0  0.39419  0.65354  0.29753  1.0000
  C   C41       1.0  0.42088  0.38383  0.15319  1.0000
  C   C42       1.0  0.42043  0.61649  0.36023  1.0000
  C   C43       1.0  0.92238  0.91043  0.06722  1.0000
  C   C44       1.0  0.92336  0.09017  0.41474  1.0000
  C   C45       1.0  0.07695  0.91068  0.42537  1.0000
  C   C46       1.0  0.94136  0.92786  0.08926  1.0000
  C   C47       1.0  0.94232  0.07296  0.39677  1.0000
  C   C48       1.0  0.05814  0.92817  0.40071  1.0000
  C   C49       1.0  0.95935  0.91895  0.19347  1.0000
  C   C50       1.0  0.95972  0.08206  0.29618  1.0000
  C   C51       1.0  0.04063  0.91922  0.29101  1.0000
  C   C52       1.0  0.95776  0.89082  0.26650  1.0000
  C   C53       1.0  0.95763  0.11026  0.22340  1.0000
  C   C54       1.0  0.04247  0.89115  0.21404  1.0000
  C   C55       1.0  0.93904  0.87308  0.24229  1.0000
  C   C56       1.0  0.93896  0.12781  0.24412  1.0000
  C   C57       1.0  0.06103  0.87337  0.24059  1.0000
  C   C58       1.0  0.48013  0.43744  0.22355  1.0000
  C   C59       1.0  0.52013  0.56447  0.24248  1.0000
  C   C60       1.0  0.52101  0.43782  0.26474  1.0000
  C   C61       1.0  0.47950  0.56392  0.28173  1.0000
  C   C62       1.0  0.02075  0.03237  0.24154  1.0000
  C   C63       1.0  0.97935  0.96872  0.23575  1.0000
  C   C64       1.0  0.97944  0.03234  0.25705  1.0000
  C   C65       1.0  0.02077  0.96884  0.25377  1.0000
  C   C66       1.0  0.45948  0.48527  0.24401  1.0000
  C   C67       1.0  0.54091  0.51650  0.25350  1.0000
  C   C68       1.0  0.54114  0.48628  0.25646  1.0000
  C   C69       1.0  0.45931  0.51545  0.25649  1.0000
  C   C70       1.0  0.77333  0.76004  0.12645  1.0000
  C   C71       1.0  0.22548  0.24143  0.10706  1.0000
  C   C72       1.0  0.22628  0.76079  0.39309  1.0000
  C   C73       1.0  0.77513  0.24240  0.38410  1.0000
  C   C74       1.0  0.76798  0.73233  0.18897  1.0000
  C   C75       1.0  0.23019  0.26967  0.17162  1.0000
  C   C76       1.0  0.23113  0.73311  0.32429  1.0000
  C   C77       1.0  0.77013  0.27088  0.32884  1.0000
  C   C78       1.0  0.74643  0.72026  0.18772  1.0000
  C   C79       1.0  0.25141  0.28273  0.17947  1.0000
  C   C80       1.0  0.25243  0.72046  0.32318  1.0000
  C   C81       1.0  0.74886  0.28373  0.32894  1.0000
  C   C82       1.0  0.79475  0.77220  0.13712  1.0000
  C   C83       1.0  0.20439  0.22841  0.11322  1.0000
  C   C84       1.0  0.20501  0.77336  0.38378  1.0000
  C   C85       1.0  0.79617  0.22950  0.37096  1.0000
  C   C86       1.0  0.81295  0.78436  0.14871  1.0000
  C   C87       1.0  0.18636  0.21622  0.12686  1.0000
  C   C88       1.0  0.18671  0.78510  0.37051  1.0000
  C   C89       1.0  0.81405  0.21710  0.35353  1.0000
  C   C90       1.0  0.83350  0.79934  0.16364  1.0000
  C   C91       1.0  0.16593  0.20155  0.14615  1.0000
  C   C92       1.0  0.83427  0.20197  0.33279  1.0000
  C   C93       1.0  0.34934  0.29002  0.23628  1.0000
  C   C94       1.0  0.36996  0.30381  0.25704  1.0000
  C   C95       1.0  0.37349  0.33242  0.19604  1.0000
  C   C96       1.0  0.35556  0.34722  0.11641  1.0000
  C   C97       1.0  0.33478  0.33402  0.09972  1.0000
  C   C98       1.0  0.89511  0.84647  0.21874  1.0000
  C   C99       1.0  0.10460  0.15576  0.21519  1.0000
  C   C100      1.0  0.10442  0.84558  0.28117  1.0000
  C   C101      1.0  0.89538  0.15523  0.26960  1.0000
  C   C102      1.0  0.92054  0.88304  0.14655  1.0000
  C   C103      1.0  0.07904  0.88324  0.34329  1.0000
  C   C104      1.0  0.92098  0.11761  0.33584  1.0000
  C   C105      1.0  0.42301  0.41072  0.06918  1.0000
  C   C106      1.0  0.42308  0.58866  0.43440  1.0000
  C   C107      1.0  0.44216  0.42788  0.08861  1.0000
  C   C108      1.0  0.44216  0.57183  0.41246  1.0000
  C   C109      1.0  0.45997  0.41917  0.19471  1.0000
  C   C110      1.0  0.45937  0.58169  0.31227  1.0000
  C   C111      1.0  0.45817  0.39144  0.27204  1.0000
  C   C112      1.0  0.45697  0.61021  0.24415  1.0000
  C   C113      1.0  0.43922  0.37403  0.25110  1.0000
  C   C114      1.0  0.43821  0.62740  0.26917  1.0000
  C   C115      1.0  0.97956  0.93719  0.22261  1.0000
  C   C116      1.0  0.02044  0.06389  0.23201  1.0000
  C   C117      1.0  0.02049  0.93733  0.26197  1.0000
  C   C118      1.0  0.97977  0.06389  0.26965  1.0000
  C   C119      1.0  0.52066  0.53294  0.25003  1.0000
  C   C120      1.0  0.47971  0.46891  0.23836  1.0000
  C   C121      1.0  0.47935  0.53241  0.26561  1.0000
  C   C122      1.0  0.52111  0.46936  0.25802  1.0000
  C   C123      1.0  0.95925  0.98537  0.24087  1.0000
  C   C124      1.0  0.04091  0.01572  0.24629  1.0000
  C   C125      1.0  0.04092  0.98550  0.25133  1.0000
  C   C126      1.0  0.95930  0.01560  0.24987  1.0000
  C   C127      1.0  0.00012  0.07837  0.25196  1.0000
  C   C128      1.0  0.00004  0.92275  0.24094  1.0000
  C   C129      1.0  0.00008  0.01650  0.24842  1.0000
  C   C130      1.0  0.00006  0.98465  0.24606  1.0000
  C   C131      1.0  0.49975  0.57868  0.26429  1.0000
  C   C132      1.0  0.50064  0.42310  0.24202  1.0000
  C   C133      1.0  0.50010  0.51683  0.25556  1.0000
  C   C134      1.0  0.50031  0.48500  0.25061  1.0000
  C   C135      1.0  0.27112  0.26427  0.62216  1.0000
  C   C136      1.0  0.72835  0.73684  0.62174  1.0000
  C   C137      1.0  0.72901  0.26434  0.88729  1.0000
  C   C138      1.0  0.27049  0.73012  0.87401  1.0000
  C   C139      1.0  0.26633  0.23657  0.54007  1.0000
  C   C140      1.0  0.73225  0.76470  0.54426  1.0000
  C   C141      1.0  0.73374  0.23635  0.96239  1.0000
  C   C142      1.0  0.26755  0.75821  0.95503  1.0000
  C   C143      1.0  0.24395  0.22453  0.53410  1.0000
  C   C144      1.0  0.75435  0.77764  0.54672  1.0000
  C   C145      1.0  0.75602  0.22410  0.96363  1.0000
  C   C146      1.0  0.24588  0.77216  0.95777  1.0000
  C   C147      1.0  0.29282  0.27606  0.63387  1.0000
  C   C148      1.0  0.70704  0.72395  0.62285  1.0000
  C   C149      1.0  0.70727  0.27599  0.87854  1.0000
  C   C150      1.0  0.29167  0.71684  0.87020  1.0000
  C   C151      1.0  0.31134  0.28719  0.64940  1.0000
  C   C152      1.0  0.68876  0.71211  0.62876  1.0000
  C   C153      1.0  0.68847  0.28622  0.86462  1.0000
  C   C154      1.0  0.31035  0.70611  0.86748  1.0000
  C   C155      1.0  0.33224  0.30156  0.66576  1.0000
  C   C156      1.0  0.66773  0.69833  0.63943  1.0000
  C   C157      1.0  0.66721  0.29951  0.84709  1.0000
  C   C158      1.0  0.33182  0.69350  0.85724  1.0000
  C   C159      1.0  0.14901  0.21390  0.74273  1.0000
  C   C160      1.0  0.14910  0.78608  0.74906  1.0000
  C   C161      1.0  0.12931  0.19863  0.76580  1.0000
  C   C162      1.0  0.12927  0.80152  0.72680  1.0000
  C   C163      1.0  0.12538  0.17087  0.68922  1.0000
  C   C164      1.0  0.12608  0.82897  0.80664  1.0000
  C   C165      1.0  0.14195  0.15852  0.59013  1.0000
  C   C166      1.0  0.14337  0.84071  0.91001  1.0000
  C   C167      1.0  0.16188  0.17322  0.56951  1.0000
  C   C168      1.0  0.16343  0.82590  0.92954  1.0000
  C   C169      1.0  0.39413  0.34799  0.72452  1.0000
  C   C170      1.0  0.60443  0.65612  0.68467  1.0000
  C   C171      1.0  0.60448  0.34337  0.77703  1.0000
  C   C172      1.0  0.39525  0.65241  0.79557  1.0000
  C   C173      1.0  0.92370  0.90960  0.57200  1.0000
  C   C174      1.0  0.94267  0.92705  0.59324  1.0000
  C   C175      1.0  0.96059  0.91833  0.69839  1.0000
  C   C176      1.0  0.95900  0.89038  0.77359  1.0000
  C   C177      1.0  0.94029  0.87261  0.75012  1.0000
  C   C178      1.0  0.47973  0.43650  0.72083  1.0000
  C   C179      1.0  0.52127  0.56266  0.73156  1.0000
  C   C180      1.0  0.52070  0.43605  0.75976  1.0000
  C   C181      1.0  0.48074  0.56308  0.77457  1.0000
  C   C182      1.0  0.02116  0.03227  0.74328  1.0000
  C   C183      1.0  0.98028  0.96820  0.73817  1.0000
  C   C184      1.0  0.97985  0.03173  0.75790  1.0000
  C   C185      1.0  0.02172  0.96868  0.75620  1.0000
  C   C186      1.0  0.45973  0.48485  0.74277  1.0000
  C   C187      1.0  0.54151  0.51434  0.74639  1.0000
  C   C188      1.0  0.54138  0.48412  0.75099  1.0000
  C   C189      1.0  0.45995  0.51504  0.75330  1.0000
  C   C190      1.0  0.77300  0.76330  0.62782  1.0000
  C   C191      1.0  0.22588  0.23973  0.61044  1.0000
  C   C192      1.0  0.22665  0.75857  0.87848  1.0000
  C   C193      1.0  0.77411  0.23930  0.88870  1.0000
  C   C194      1.0  0.76801  0.73629  0.70056  1.0000
  C   C195      1.0  0.23162  0.26692  0.68424  1.0000
  C   C196      1.0  0.23064  0.73120  0.80303  1.0000
  C   C197      1.0  0.76844  0.26681  0.82206  1.0000
  C   C198      1.0  0.74683  0.72318  0.69769  1.0000
  C   C199      1.0  0.25316  0.27900  0.69145  1.0000
  C   C200      1.0  0.25145  0.71713  0.79999  1.0000
  C   C201      1.0  0.74700  0.27916  0.82066  1.0000
  C   C202      1.0  0.79431  0.77582  0.63723  1.0000
  C   C203      1.0  0.20451  0.22758  0.61637  1.0000
  C   C204      1.0  0.20564  0.77193  0.87328  1.0000
  C   C205      1.0  0.79530  0.22669  0.87796  1.0000
  C   C206      1.0  0.81282  0.78710  0.64905  1.0000
  C   C207      1.0  0.18628  0.21581  0.62776  1.0000
  C   C208      1.0  0.18736  0.78379  0.86386  1.0000
  C   C209      1.0  0.81330  0.21441  0.86359  1.0000
  C   C210      1.0  0.16577  0.20127  0.64568  1.0000
  C   C211      1.0  0.16667  0.79831  0.84860  1.0000
  C   C212      1.0  0.64966  0.71372  0.70698  1.0000
  C   C213      1.0  0.34952  0.29035  0.76953  1.0000
  C   C214      1.0  0.34836  0.70756  0.76609  1.0000
  C   C215      1.0  0.64981  0.28601  0.75163  1.0000
  C   C216      1.0  0.62920  0.69973  0.72099  1.0000
  C   C217      1.0  0.36953  0.30572  0.78875  1.0000
  C   C218      1.0  0.36894  0.69411  0.74672  1.0000
  C   C219      1.0  0.62947  0.30037  0.72952  1.0000
  C   C220      1.0  0.62597  0.67029  0.66626  1.0000
  C   C221      1.0  0.37314  0.33198  0.70153  1.0000
  C   C222      1.0  0.37391  0.66685  0.82195  1.0000
  C   C223      1.0  0.62560  0.32802  0.80542  1.0000
  C   C224      1.0  0.64397  0.65509  0.59682  1.0000
  C   C225      1.0  0.35602  0.34277  0.59539  1.0000
  C   C226      1.0  0.35763  0.65335  0.91746  1.0000
  C   C227      1.0  0.64281  0.34106  0.90421  1.0000
  C   C228      1.0  0.66449  0.66873  0.58418  1.0000
  C   C229      1.0  0.33582  0.32807  0.57905  1.0000
  C   C230      1.0  0.33688  0.66622  0.93396  1.0000
  C   C231      1.0  0.66331  0.32729  0.92350  1.0000
  C   C232      1.0  0.89647  0.84539  0.72186  1.0000
  C   C233      1.0  0.10475  0.15503  0.71753  1.0000
  C   C234      1.0  0.10543  0.84524  0.77743  1.0000
  C   C235      1.0  0.89416  0.15182  0.77258  1.0000
  C   C236      1.0  0.92188  0.88235  0.65273  1.0000
  C   C237      1.0  0.98070  0.93670  0.72650  1.0000
  C   C238      1.0  0.02058  0.06377  0.73286  1.0000
  C   C239      1.0  0.02164  0.93715  0.76531  1.0000
  C   C240      1.0  0.97995  0.06327  0.77120  1.0000
  C   C241      1.0  0.52144  0.53115  0.74147  1.0000
  C   C242      1.0  0.47972  0.46799  0.73575  1.0000
  C   C243      1.0  0.48020  0.53156  0.75990  1.0000
  C   C244      1.0  0.52116  0.46759  0.75278  1.0000
  C   C245      1.0  0.96005  0.98456  0.74222  1.0000
  C   C246      1.0  0.04144  0.01589  0.74839  1.0000
  C   C247      1.0  0.04171  0.98567  0.75311  1.0000
  C   C248      1.0  0.95983  0.01476  0.75022  1.0000
  C   C249      1.0  0.00018  0.07802  0.75340  1.0000
  C   C250      1.0  0.00122  0.92245  0.74552  1.0000
  C   C251      1.0  0.00063  0.01614  0.75011  1.0000
  C   C252      1.0  0.00089  0.98430  0.74829  1.0000
  C   C253      1.0  0.50111  0.57739  0.75411  1.0000
  C   C254      1.0  0.50012  0.42178  0.73797  1.0000
  C   C255      1.0  0.50071  0.51548  0.74904  1.0000
  C   C256      1.0  0.50054  0.48364  0.74578  1.0000
  S   S1        1.0  0.27169  0.80375  0.10470  1.0000
  S   S2        1.0  0.73265  0.19000  0.09949  1.0000
  S   S3        1.0  0.72984  0.81035  0.39984  1.0000
  S   S4        1.0  0.26727  0.19055  0.39322  1.0000
  S   S5        1.0  0.26974  0.80975  0.61189  1.0000
  S   S6        1.0  0.73282  0.19225  0.57828  1.0000
  S   S7        1.0  0.73092  0.81024  0.91354  1.0000
  S   S8        1.0  0.26886  0.19248  0.91038  1.0000
  N   N1        1.0  0.40035  0.36928  0.13102  1.0000
  N   N2        1.0  0.59790  0.63388  0.13104  1.0000
  N   N3        1.0  0.59985  0.36894  0.37704  1.0000
  N   N4        1.0  0.40026  0.63116  0.38679  1.0000
  N   N5        1.0  0.90035  0.86777  0.12138  1.0000
  N   N6        1.0  0.09849  0.13313  0.12473  1.0000
  N   N7        1.0  0.09901  0.86789  0.37353  1.0000
  N   N8        1.0  0.90089  0.13266  0.35940  1.0000
  N   N9        1.0  0.24596  0.79835  0.03943  1.0000
  N   N10       1.0  0.75763  0.19766  0.03853  1.0000
  N   N11       1.0  0.75522  0.80377  0.46847  1.0000
  N   N12       1.0  0.24226  0.19829  0.45351  1.0000
  N   N13       1.0  0.28375  0.77402  0.03516  1.0000
  N   N14       1.0  0.71882  0.21902  0.03648  1.0000
  N   N15       1.0  0.71674  0.78120  0.46359  1.0000
  N   N16       1.0  0.28124  0.21926  0.46364  1.0000
  N   N17       1.0  0.40001  0.36800  0.62123  1.0000
  N   N18       1.0  0.60066  0.62937  0.63166  1.0000
  N   N19       1.0  0.59898  0.36569  0.86883  1.0000
  N   N20       1.0  0.40200  0.63075  0.88780  1.0000
  N   N21       1.0  0.90172  0.86708  0.62728  1.0000
  N   N22       1.0  0.09831  0.13316  0.62246  1.0000
  N   N23       1.0  0.09977  0.86668  0.87505  1.0000
  N   N24       1.0  0.90077  0.13092  0.87092  1.0000
  N   N25       1.0  0.24428  0.80251  0.54652  1.0000
  N   N26       1.0  0.75791  0.19969  0.51892  1.0000
  N   N27       1.0  0.75620  0.80234  0.97907  1.0000
  N   N28       1.0  0.24346  0.19945  0.96526  1.0000
  N   N29       1.0  0.28282  0.78035  0.54823  1.0000
  N   N30       1.0  0.71944  0.22211  0.52261  1.0000
  N   N31       1.0  0.71726  0.78126  0.97293  1.0000
  N   N32       1.0  0.28187  0.22225  0.97659  1.0000
  F   F1        1.0  0.78460  0.71579  0.25846  1.0000
  F   F2        1.0  0.21320  0.28568  0.23369  1.0000
  F   F3        1.0  0.21428  0.71728  0.24996  1.0000
  F   F4        1.0  0.78681  0.28721  0.26648  1.0000
  F   F5        1.0  0.78461  0.72170  0.78332  1.0000
  F   F6        1.0  0.21541  0.28273  0.75824  1.0000
  F   F7        1.0  0.21318  0.71721  0.72491  1.0000
  F   F8        1.0  0.78459  0.28273  0.74981  1.0000
  C  Sn1       1.0  0.84298  0.82904  0.54459  1.0000
  C   C257      1.0  0.83649  0.80252  0.61598  1.0000
  C  Sn2       1.0  0.84917  0.79036  0.74627  1.0000
  C  Sn3       1.0  0.86874  0.80502  0.80655  1.0000
  C   C258      1.0  0.87523  0.83153  0.73519  1.0000
  C  Sn4       1.0  0.86256  0.84370  0.60486  1.0000
  O  Te1       1.0  0.83005  0.84079  0.41446  1.0000
  O  Te2       1.0  0.84234  0.76383  0.81561  1.0000
  O  Te3       1.0  0.88168  0.79325  0.93678  1.0000
  O  Te4       1.0  0.86938  0.87022  0.53556  1.0000
  Mg  Mg1       1.0  0.86550  0.75661  0.99054  1.0000
  Mg  Mg2       1.0  0.84622  0.87746  0.36070  1.0000
  C  Sn5       1.0  0.15704  0.82852  0.46993  1.0000
  C   C259      1.0  0.16322  0.80143  0.40028  1.0000
  C  Sn6       1.0  0.15070  0.78903  0.26810  1.0000
  C  Sn7       1.0  0.13161  0.80403  0.20411  1.0000
  C   C260      1.0  0.12544  0.83110  0.27373  1.0000
  C  Sn8       1.0  0.13795  0.84352  0.40595  1.0000
  O  Te5       1.0  0.16980  0.84051  0.60201  1.0000
  O  Te6       1.0  0.15721  0.76192  0.20055  1.0000
  O  Te7       1.0  0.11885  0.79202  0.07193  1.0000
  O  Te8       1.0  0.13146  0.87061  0.47346  1.0000
  Mg  Mg3       1.0  0.13444  0.75458  0.02182  1.0000
  Mg  Mg4       1.0  0.15421  0.87798  0.65213  1.0000
  C  Sn9       1.0  0.35131  0.70596  0.22115  1.0000
  C   C261      1.0  0.33303  0.69614  0.30788  1.0000
  C  Sn10      1.0  0.33529  0.67263  0.41782  1.0000
  C  Sn11      1.0  0.35627  0.65867  0.44166  1.0000
  C   C262      1.0  0.37454  0.66850  0.35498  1.0000
  C  Sn12      1.0  0.37229  0.69200  0.24499  1.0000
  O  Te9       1.0  0.34867  0.72950  0.11187  1.0000
  O  Te10      1.0  0.31677  0.66319  0.50309  1.0000
  O  Te11      1.0  0.35890  0.63512  0.55104  1.0000
  O  Te12      1.0  0.39080  0.70144  0.15978  1.0000
  Mg  Mg5       1.0  0.32875  0.63027  0.63857  1.0000
  Mg  Mg6       1.0  0.37884  0.73437  0.02433  1.0000
  C  Sn13      1.0  0.93983  0.12035  0.69988  1.0000
  C   C263      1.0  0.92190  0.11463  0.80064  1.0000
  C  Sn14      1.0  0.92343  0.09251  0.91976  1.0000
  C  Sn15      1.0  0.94330  0.07579  0.93864  1.0000
  C   C264      1.0  0.96121  0.08152  0.83794  1.0000
  C  Sn16      1.0  0.95969  0.10363  0.71876  1.0000
  O  Te13      1.0  0.93793  0.14257  0.58161  1.0000
  O  Te14      1.0  0.90075  0.08505  0.01901  1.0000
  O  Te15      1.0  0.94065  0.05143  0.05703  1.0000
  O  Te16      1.0  0.97783  0.10896  0.61957  1.0000
  Mg  Mg7       1.0  0.91140  0.05247  0.16269  1.0000
  Mg  Mg8       1.0  0.96720  0.14155  0.47592  1.0000
  C  Sn17      1.0  0.06507  0.07084  0.62808  1.0000
  C   C265      1.0  0.04613  0.07774  0.71655  1.0000
  C  Sn18      1.0  0.04200  0.10689  0.76569  1.0000
  C  Sn19      1.0  0.05710  0.12963  0.72549  1.0000
  C   C266      1.0  0.07603  0.12273  0.63706  1.0000
  C  Sn20      1.0  0.08018  0.09358  0.58788  1.0000
  O  Te17      1.0  0.06887  0.04154  0.58020  1.0000
  O  Te18      1.0  0.02295  0.11325  0.85408  1.0000
  O  Te19      1.0  0.05329  0.15894  0.77346  1.0000
  O  Te20      1.0  0.09921  0.08722  0.49952  1.0000
  Mg  Mg9       1.0  0.02503  0.15653  0.89176  1.0000
  Mg  Mg10      1.0  0.09713  0.04395  0.46171  1.0000
  C  Sn21      1.0  0.44097  0.62093  0.71340  1.0000
  C   C267      1.0  0.42319  0.61511  0.81537  1.0000
  C  Sn22      1.0  0.42481  0.59271  0.93275  1.0000
  C  Sn23      1.0  0.44462  0.57579  0.94863  1.0000
  C   C268      1.0  0.46239  0.58162  0.84672  1.0000
  C  Sn24      1.0  0.46078  0.60401  0.72928  1.0000
  O  Te21      1.0  0.43899  0.64343  0.59691  1.0000
  O  Te22      1.0  0.40227  0.58515  0.03325  1.0000
  O  Te23      1.0  0.44206  0.55114  0.06523  1.0000
  O  Te24      1.0  0.47877  0.60944  0.62884  1.0000
  Mg  Mg11      1.0  0.41300  0.55216  0.17360  1.0000
  Mg  Mg12      1.0  0.46807  0.64244  0.48851  1.0000
  C  Sn25      1.0  0.64802  0.65684  0.10693  1.0000
  C   C269      1.0  0.63015  0.66683  0.19876  1.0000
  C  Sn26      1.0  0.62934  0.69620  0.25396  1.0000
  C  Sn27      1.0  0.64674  0.71600  0.21650  1.0000
  C   C270      1.0  0.66459  0.70601  0.12469  1.0000
  C  Sn28      1.0  0.66542  0.67665  0.06947  1.0000
  O  Te25      1.0  0.64849  0.62740  0.05301  1.0000
  O  Te26      1.0  0.61131  0.70566  0.34563  1.0000
  O  Te27      1.0  0.64625  0.74547  0.27051  1.0000
  O  Te28      1.0  0.68797  0.66932  0.97783  1.0000
  Mg  Mg13      1.0  0.61818  0.74787  0.39139  1.0000
  Mg  Mg14      1.0  0.68110  0.62712  0.93193  1.0000
  C  Sn29      1.0  0.07237  0.91167  0.96374  1.0000
  C   C271      1.0  0.07689  0.88427  0.89040  1.0000
  C  Sn30      1.0  0.06426  0.87429  0.75250  1.0000
  C  Sn31      1.0  0.04675  0.89207  0.68646  1.0000
  C   C272      1.0  0.04224  0.91945  0.75977  1.0000
  C  Sn32      1.0  0.05486  0.92945  0.89770  1.0000
  O  Te29      1.0  0.08069  0.91906  0.10151  1.0000
  O  Te30      1.0  0.06909  0.84682  0.68135  1.0000
  O  Te31      1.0  0.03390  0.88251  0.54858  1.0000
  O  Te32      1.0  0.05004  0.95690  0.96882  1.0000
  Mg  Mg15      1.0  0.04690  0.84348  0.49521  1.0000
  Mg  Mg16      1.0  0.06769  0.95813  0.15489  1.0000
  C  Sn33      1.0  0.06503  0.07096  0.12691  1.0000
  C   C273      1.0  0.04623  0.07761  0.21758  1.0000
  C  Sn34      1.0  0.04221  0.10661  0.27004  1.0000
  C  Sn35      1.0  0.05729  0.12945  0.23097  1.0000
  C   C274      1.0  0.07607  0.12280  0.14033  1.0000
  C  Sn36      1.0  0.08011  0.09380  0.08784  1.0000
  O  Te33      1.0  0.06871  0.04181  0.07573  1.0000
  O  Te34      1.0  0.02331  0.11271  0.36059  1.0000
  O  Te35      1.0  0.05360  0.15862  0.28224  1.0000
  O  Te36      1.0  0.10352  0.08984  0.99732  1.0000
  Mg  Mg17      1.0  0.02552  0.15587  0.40253  1.0000
  Mg  Mg18      1.0  0.10133  0.04669  0.95525  1.0000
  C  Sn37      1.0  0.56453  0.57159  0.13713  1.0000
  C   C275      1.0  0.54574  0.57830  0.22772  1.0000
  C  Sn38      1.0  0.54183  0.60729  0.28079  1.0000
  C  Sn39      1.0  0.55700  0.63006  0.24243  1.0000
  C   C276      1.0  0.57578  0.62335  0.15187  1.0000
  C  Sn40      1.0  0.57971  0.59436  0.09877  1.0000
  O  Te37      1.0  0.56811  0.54245  0.08533  1.0000
  O  Te38      1.0  0.52293  0.61346  0.37125  1.0000
  O  Te39      1.0  0.55341  0.65922  0.29433  1.0000
  O  Te40      1.0  0.59859  0.58819  0.00834  1.0000
  Mg  Mg19      1.0  0.52529  0.65657  0.41421  1.0000
  Mg  Mg20      1.0  0.60077  0.54723  0.96525  1.0000
  C  Sn41      1.0  0.84949  0.15386  0.87110  1.0000
  C   C277      1.0  0.86789  0.16251  0.78193  1.0000
  C  Sn42      1.0  0.87014  0.19182  0.73222  1.0000
  C  Sn43      1.0  0.85367  0.21293  0.77257  1.0000
  C   C278      1.0  0.83529  0.20427  0.86170  1.0000
  C  Sn44      1.0  0.83302  0.17497  0.91144  1.0000
  O  Te41      1.0  0.84757  0.12444  0.91953  1.0000
  O  Te42      1.0  0.88868  0.19994  0.64314  1.0000
  O  Te43      1.0  0.85560  0.24236  0.72404  1.0000
  O  Te44      1.0  0.80997  0.16470  0.00050  1.0000
  Mg  Mg21      1.0  0.88386  0.24267  0.60489  1.0000
  Mg  Mg22      1.0  0.81478  0.12199  0.03888  1.0000
  C  Sn45      1.0  0.56159  0.61950  0.80406  1.0000
  C   C279      1.0  0.57934  0.61369  0.70110  1.0000
  C  Sn46      1.0  0.57744  0.59182  0.57784  1.0000
  C  Sn47      1.0  0.55738  0.57543  0.55697  1.0000
  C   C280      1.0  0.53964  0.58124  0.65988  1.0000
  C  Sn48      1.0  0.54153  0.60311  0.78320  1.0000
  O  Te45      1.0  0.56386  0.64147  0.92647  1.0000
  O  Te46      1.0  0.59542  0.58640  0.47645  1.0000
  O  Te47      1.0  0.55513  0.55344  0.43444  1.0000
  O  Te48      1.0  0.52357  0.60853  0.88452  1.0000
  Mg  Mg23      1.0  0.58426  0.55424  0.32719  1.0000
  Mg  Mg24      1.0  0.53017  0.63856  0.03376  1.0000
  C  Sn49      1.0  0.63265  0.29516  0.28608  1.0000
  C   C281      1.0  0.62589  0.32288  0.34388  1.0000
  C  Sn50      1.0  0.64161  0.34339  0.40492  1.0000
  C  Sn51      1.0  0.66457  0.33606  0.40816  1.0000
  C   C282      1.0  0.67132  0.30836  0.35036  1.0000
  C  Sn52      1.0  0.65561  0.28783  0.28932  1.0000
  O  Te49      1.0  0.61664  0.27500  0.22560  1.0000
  O  Te50      1.0  0.63445  0.37096  0.46208  1.0000
  O  Te51      1.0  0.68058  0.35625  0.46872  1.0000
  O  Te52      1.0  0.66276  0.26028  0.23216  1.0000
  Mg  Mg25      1.0  0.66259  0.39095  0.53272  1.0000
  Mg  Mg26      1.0  0.63463  0.24028  0.16142  1.0000
  C  Sn53      1.0  0.56597  0.42826  0.86725  1.0000
  C   C283      1.0  0.54639  0.42190  0.77533  1.0000
  C  Sn54      1.0  0.54179  0.39301  0.72106  1.0000
  C  Sn55      1.0  0.55707  0.37001  0.75954  1.0000
  C   C284      1.0  0.57664  0.37637  0.85142  1.0000
  C  Sn56      1.0  0.58125  0.40525  0.90573  1.0000
  O  Te53      1.0  0.57023  0.45730  0.92024  1.0000
  O  Te54      1.0  0.52211  0.38719  0.62929  1.0000
  O  Te55      1.0  0.55280  0.34095  0.70646  1.0000
  O  Te56      1.0  0.60092  0.41108  0.99746  1.0000
  Mg  Mg27      1.0  0.52374  0.34410  0.58503  1.0000
  Mg  Mg28      1.0  0.59477  0.45202  0.04186  1.0000
  C  Sn57      1.0  0.56029  0.38024  0.19415  1.0000
  C   C285      1.0  0.57858  0.38534  0.30224  1.0000
  C  Sn58      1.0  0.57767  0.40723  0.42531  1.0000
  C  Sn59      1.0  0.55806  0.42436  0.44073  1.0000
  C   C286      1.0  0.53979  0.41925  0.33271  1.0000
  C  Sn60      1.0  0.54068  0.39737  0.20958  1.0000
  O  Te57      1.0  0.56157  0.35824  0.07204  1.0000
  O  Te58      1.0  0.59617  0.41193  0.53188  1.0000
  O  Te59      1.0  0.55680  0.44637  0.56297  1.0000
  O  Te60      1.0  0.52220  0.39266  0.10307  1.0000
  Mg  Mg29      1.0  0.58634  0.44445  0.67848  1.0000
  Mg  Mg30      1.0  0.53653  0.36228  0.95649  1.0000
  C  Sn61      1.0  0.42801  0.41184  0.52659  1.0000
  C   C287      1.0  0.42310  0.38488  0.59998  1.0000
  C  Sn62      1.0  0.43605  0.37478  0.73453  1.0000
  C  Sn63      1.0  0.45428  0.39199  0.79711  1.0000
  C   C288      1.0  0.45917  0.41894  0.72375  1.0000
  C  Sn64      1.0  0.44623  0.42906  0.58917  1.0000
  O  Te61      1.0  0.41483  0.42151  0.39221  1.0000
  O  Te62      1.0  0.43083  0.34774  0.80581  1.0000
  O  Te63      1.0  0.46745  0.38230  0.93160  1.0000
  O  Te64      1.0  0.45144  0.45608  0.51793  1.0000
  Mg  Mg31      1.0  0.45370  0.34401  0.98659  1.0000
  Mg  Mg32      1.0  0.42858  0.45984  0.33721  1.0000
