data_image0
_chemical_formula_structural       H114C204N36SnCSn2CSnTe4Mg2SnCSn2CSnTe4Mg2SnCSn2CSnTe4Mg2SnCSn2CSnTe4Mg2SnCSn2CSnTe4Mg2SnCSn2CSnTe4Mg2SnCSn2CSnTe4Mg2SnCSn2CSnTe4Mg2SnCSn2CSnTe4Mg2SnCSn2CSnTe4Mg2SnCSn2CSnTe4Mg2SnCSn2CSnTe4Mg2SnCSn2CSnTe4Mg2SnCSn2CSnTe4Mg2SnCSn2CSnTe4Mg2SnCSn2CSnTe4Mg2SnCSn2CSnTe4Mg2SnCSn2CSnTe4Mg2
_chemical_formula_sum              "H114 C240 N36 Sn72 Te72 Mg36"
_cell_length_a       50.1353
_cell_length_b       9.68969
_cell_length_c       50.7474
_cell_angle_alpha    89.7673
_cell_angle_beta     118.927
_cell_angle_gamma    96.4334

_symmetry_space_group_name_H-M    'P1'
_space_group_IT_number       1

loop_
  _space_group_symop_operation_xyz
  'x, y, z'

loop_
  _atom_site_type_symbol
  _atom_site_label
  _atom_site_symmetry_multiplicity
  _atom_site_fract_x
  _atom_site_fract_y
  _atom_site_fract_z
  _atom_site_occupancy
  H   H1        1.0  0.04630  0.81545  0.74459  1.0000
  H   H2        1.0  0.94634  0.86046  0.73957  1.0000
  H   H3        1.0  0.96649  0.22755  0.88453  1.0000
  H   H4        1.0  0.96008  0.94501  0.86983  1.0000
  H   H5        1.0  0.96655  0.29471  0.83697  1.0000
  H   H6        1.0  0.96140  0.88965  0.82271  1.0000
  H   H7        1.0  0.72380  0.78144  0.38069  1.0000
  H   H8        1.0  0.70846  0.26689  0.38477  1.0000
  H   H9        1.0  0.16261  0.71717  0.70833  1.0000
  H   H10       1.0  0.14502  0.10522  0.68512  1.0000
  H   H11       1.0  0.69909  0.82996  0.94973  1.0000
  H   H12       1.0  0.78707  0.65801  0.03803  1.0000
  H   H13       1.0  0.92885  0.24953  0.04401  1.0000
  H   H14       1.0  0.92370  0.93212  0.05488  1.0000
  H   H15       1.0  0.88210  0.30533  0.04478  1.0000
  H   H16       1.0  0.87615  0.86385  0.05822  1.0000
  H   H17       1.0  0.68152  0.75042  0.28295  1.0000
  H   H18       1.0  0.66185  0.23379  0.27878  1.0000
  H   H19       1.0  0.42553  0.55437  0.80094  1.0000
  H   H20       1.0  0.41439  0.23145  0.77736  1.0000
  H   H21       1.0  0.47012  0.66887  0.84783  1.0000
  H   H22       1.0  0.46219  0.15169  0.81806  1.0000
  H   H23       1.0  0.49493  0.94402  0.79444  1.0000
  H   H24       1.0  0.51641  0.44264  0.79330  1.0000
  H   H25       1.0  0.45065  0.82934  0.74759  1.0000
  H   H26       1.0  0.46894  0.52500  0.75343  1.0000
  H   H27       1.0  0.53140  0.93311  0.84827  1.0000
  H   H28       1.0  0.54227  0.32054  0.83643  1.0000
  H   H29       1.0  0.28846  0.20034  0.37914  1.0000
  H   H30       1.0  0.29335  0.84410  0.37561  1.0000
  H   H31       1.0  0.38289  0.13223  0.41991  1.0000
  H   H32       1.0  0.38693  0.76188  0.41632  1.0000
  H   H33       1.0  0.38745  0.15061  0.47123  1.0000
  H   H34       1.0  0.39014  0.76660  0.46708  1.0000
  H   H35       1.0  0.29241  0.21508  0.43036  1.0000
  H   H36       1.0  0.29614  0.84796  0.42592  1.0000
  H   H37       1.0  0.61772  0.76061  0.32518  1.0000
  H   H38       1.0  0.60897  0.24373  0.32589  1.0000
  H   H39       1.0  0.36962  0.75923  0.58730  1.0000
  H   H40       1.0  0.36766  0.83405  0.53952  1.0000
  H   H41       1.0  0.28077  0.57865  0.48902  1.0000
  H   H42       1.0  0.28283  0.50399  0.53649  1.0000
  H   H43       1.0  0.30244  0.68392  0.46206  1.0000
  H   H44       1.0  0.30565  0.06781  0.47692  1.0000
  H   H45       1.0  0.74056  0.70588  0.04088  1.0000
  H   H46       1.0  0.74647  0.78911  0.94715  1.0000
  H   H47       1.0  0.88291  0.70734  0.96873  1.0000
  H   H48       1.0  0.87202  0.00324  0.96117  1.0000
  H   H49       1.0  0.83461  0.64372  0.97150  1.0000
  H   H50       1.0  0.82523  0.05434  0.96270  1.0000
  H   H51       1.0  0.38513  0.25762  0.71770  1.0000
  H   H52       1.0  0.38779  0.77235  0.72187  1.0000
  H   H53       1.0  0.62979  0.45910  0.20007  1.0000
  H   H54       1.0  0.65287  0.77915  0.22616  1.0000
  H   H55       1.0  0.62503  0.36058  0.15247  1.0000
  H   H56       1.0  0.66130  0.87380  0.18462  1.0000
  H   H57       1.0  0.69187  0.08802  0.20394  1.0000
  H   H58       1.0  0.72829  0.59370  0.20324  1.0000
  H   H59       1.0  0.69685  0.18740  0.25139  1.0000
  H   H60       1.0  0.71909  0.49626  0.24381  1.0000
  H   H61       1.0  0.67318  0.09432  0.14953  1.0000
  H   H62       1.0  0.71137  0.71360  0.15891  1.0000
  H   H63       1.0  0.92047  0.83330  0.62271  1.0000
  H   H64       1.0  0.90043  0.17561  0.62634  1.0000
  H   H65       1.0  0.97945  0.83412  0.58353  1.0000
  H   H66       1.0  0.94845  0.16720  0.57601  1.0000
  H   H67       1.0  0.93340  0.80955  0.53187  1.0000
  H   H68       1.0  0.89871  0.16437  0.52769  1.0000
  H   H69       1.0  0.87451  0.81217  0.57132  1.0000
  H   H70       1.0  0.85071  0.17613  0.57840  1.0000
  H   H71       1.0  0.95076  0.86232  0.69242  1.0000
  H   H72       1.0  0.04212  0.81089  0.79155  1.0000
  H   H73       1.0  0.04363  0.76437  0.92174  1.0000
  H   H74       1.0  0.05655  0.10329  0.91868  1.0000
  H   H75       1.0  0.04350  0.69878  0.87445  1.0000
  H   H76       1.0  0.05755  0.17946  0.87236  1.0000
  H   H77       1.0  0.27823  0.22322  0.67148  1.0000
  H   H78       1.0  0.28854  0.74044  0.67820  1.0000
  H   H79       1.0  0.79845  0.55085  0.42439  1.0000
  H   H80       1.0  0.84685  0.65445  0.46951  1.0000
  H   H81       1.0  0.79678  0.94361  0.48570  1.0000
  H   H82       1.0  0.74839  0.84109  0.44063  1.0000
  H   H83       1.0  0.83027  0.33376  0.53990  1.0000
  H   H84       1.0  0.84962  0.92686  0.52369  1.0000
  H   H85       1.0  0.36649  0.06812  0.29328  1.0000
  H   H86       1.0  0.41606  0.19709  0.38719  1.0000
  H   H87       1.0  0.46607  0.19169  0.38699  1.0000
  H   H88       1.0  0.41593  0.05700  0.29301  1.0000
  H   H89       1.0  0.32837  0.22912  0.61853  1.0000
  H   H90       1.0  0.33341  0.74505  0.61764  1.0000
  H   H91       1.0  0.58120  0.24605  0.36251  1.0000
  H   H92       1.0  0.53216  0.14309  0.36052  1.0000
  H   H93       1.0  0.48096  0.31451  0.27439  1.0000
  H   H94       1.0  0.52971  0.41759  0.27654  1.0000
  H   H95       1.0  0.45413  0.22255  0.29831  1.0000
  H   H96       1.0  0.46631  0.82304  0.29395  1.0000
  H   H97       1.0  0.03360  0.26075  0.82331  1.0000
  H   H98       1.0  0.02289  0.70879  0.81988  1.0000
  H   H99       1.0  0.82703  0.26231  0.02678  1.0000
  H   H100      1.0  0.82402  0.79702  0.03454  1.0000
  H   H101      1.0  0.21396  0.34849  0.18267  1.0000
  H   H102      1.0  0.21058  0.80427  0.17383  1.0000
  H   H103      1.0  0.66257  0.25871  0.33058  1.0000
  H   H104      1.0  0.67214  0.75545  0.32905  1.0000
  H   H105      1.0  0.33637  0.74278  0.67087  1.0000
  H   H106      1.0  0.33055  0.24626  0.67044  1.0000
  H   H107      1.0  0.00139  0.74652  0.94876  1.0000
  H   H108      1.0  0.01147  0.26432  0.95453  1.0000
  H   H109      1.0  0.95178  0.73038  0.00489  1.0000
  H   H110      1.0  0.95649  0.24669  0.00361  1.0000
  H   H111      1.0  0.05388  0.75663  0.05154  1.0000
  H   H112      1.0  0.06181  0.27381  0.05490  1.0000
  H   H113      1.0  0.00192  0.75423  0.00093  1.0000
  H   H114      1.0  0.00964  0.25117  0.00477  1.0000
  C   C1        1.0  0.58679  0.42518  0.32340  1.0000
  C   C2        1.0  0.58918  0.57238  0.32323  1.0000
  C   C3        1.0  0.00915  0.18604  0.65644  1.0000
  C   C4        1.0  0.03182  0.84830  0.66571  1.0000
  C   C5        1.0  0.02439  0.82226  0.74371  1.0000
  C   C6        1.0  0.96792  0.84694  0.74029  1.0000
  C   C7        1.0  0.98654  0.21841  0.88189  1.0000
  C   C8        1.0  0.97850  0.89199  0.87082  1.0000
  C   C9        1.0  0.98640  0.25563  0.85528  1.0000
  C   C10       1.0  0.97900  0.86082  0.84443  1.0000
  C   C11       1.0  0.69211  0.44383  0.35850  1.0000
  C   C12       1.0  0.69525  0.58951  0.35806  1.0000
  C   C13       1.0  0.72006  0.66923  0.38167  1.0000
  C   C14       1.0  0.71202  0.37909  0.38373  1.0000
  C   C15       1.0  0.16694  0.76728  0.69105  1.0000
  C   C16       1.0  0.14371  0.17078  0.66693  1.0000
  C   C17       1.0  0.73631  0.45864  0.40854  1.0000
  C   C18       1.0  0.74137  0.60459  0.40668  1.0000
  C   C19       1.0  0.63421  0.18843  0.96692  1.0000
  C   C20       1.0  0.64038  0.83383  0.97807  1.0000
  C   C21       1.0  0.71861  0.79372  0.96894  1.0000
  C   C22       1.0  0.76820  0.69937  0.01903  1.0000
  C   C23       1.0  0.90623  0.20817  0.02585  1.0000
  C   C24       1.0  0.90442  0.86643  0.03699  1.0000
  C   C25       1.0  0.87984  0.23806  0.02647  1.0000
  C   C26       1.0  0.87783  0.82881  0.03877  1.0000
  C   C27       1.0  0.66819  0.42582  0.30351  1.0000
  C   C28       1.0  0.67174  0.57165  0.30368  1.0000
  C   C29       1.0  0.67687  0.63770  0.28196  1.0000
  C   C30       1.0  0.66664  0.34650  0.27991  1.0000
  C   C31       1.0  0.43560  0.68088  0.77095  1.0000
  C   C32       1.0  0.43847  0.38732  0.76329  1.0000
  C   C33       1.0  0.44072  0.64004  0.79961  1.0000
  C   C34       1.0  0.43677  0.27688  0.78075  1.0000
  C   C35       1.0  0.46541  0.70357  0.82577  1.0000
  C   C36       1.0  0.46340  0.23213  0.80354  1.0000
  C   C37       1.0  0.48596  0.81051  0.82419  1.0000
  C   C38       1.0  0.49245  0.29524  0.80901  1.0000
  C   C39       1.0  0.47959  0.85905  0.79586  1.0000
  C   C40       1.0  0.49404  0.39650  0.78975  1.0000
  C   C41       1.0  0.45459  0.79519  0.76952  1.0000
  C   C42       1.0  0.46746  0.44237  0.76737  1.0000
  C   C43       1.0  0.51494  0.85862  0.85114  1.0000
  C   C44       1.0  0.52099  0.27107  0.83554  1.0000
  C   C45       1.0  0.66989  0.41207  0.25665  1.0000
  C   C46       1.0  0.67689  0.55885  0.25881  1.0000
  C   C47       1.0  0.33419  0.16121  0.36703  1.0000
  C   C48       1.0  0.33776  0.79453  0.36262  1.0000
  C   C49       1.0  0.30976  0.18736  0.39946  1.0000
  C   C50       1.0  0.31418  0.82405  0.39570  1.0000
  C   C51       1.0  0.33545  0.16560  0.39656  1.0000
  C   C52       1.0  0.33962  0.79866  0.39260  1.0000
  C   C53       1.0  0.36335  0.15023  0.42265  1.0000
  C   C54       1.0  0.36715  0.77933  0.41872  1.0000
  C   C55       1.0  0.36584  0.15938  0.45093  1.0000
  C   C56       1.0  0.36896  0.78217  0.44692  1.0000
  C   C57       1.0  0.34003  0.18008  0.45395  1.0000
  C   C58       1.0  0.34303  0.80093  0.44990  1.0000
  C   C59       1.0  0.31190  0.19357  0.42780  1.0000
  C   C60       1.0  0.31581  0.82529  0.42385  1.0000
  C   C61       1.0  0.63708  0.43249  0.32776  1.0000
  C   C62       1.0  0.63957  0.57804  0.32720  1.0000
  C   C63       1.0  0.61576  0.64765  0.32493  1.0000
  C   C64       1.0  0.61108  0.35672  0.32599  1.0000
  C   C65       1.0  0.32667  0.62351  0.56539  1.0000
  C   C66       1.0  0.34985  0.72145  0.56575  1.0000
  C   C67       1.0  0.34892  0.76329  0.53897  1.0000
  C   C68       1.0  0.32439  0.70977  0.51082  1.0000
  C   C69       1.0  0.30010  0.62027  0.51055  1.0000
  C   C70       1.0  0.30119  0.57799  0.53726  1.0000
  C   C71       1.0  0.32354  0.73249  0.48186  1.0000
  C   C72       1.0  0.32512  0.14606  0.49111  1.0000
  C   C73       1.0  0.32957  0.55601  0.59294  1.0000
  C   C74       1.0  0.32875  0.40922  0.59372  1.0000
  C   C75       1.0  0.67037  0.84195  0.02912  1.0000
  C   C76       1.0  0.65855  0.19092  0.01835  1.0000
  C   C77       1.0  0.74230  0.72448  0.02060  1.0000
  C   C78       1.0  0.74466  0.76998  0.96737  1.0000
  C   C79       1.0  0.88147  0.73989  0.98846  1.0000
  C   C80       1.0  0.87419  0.06878  0.97960  1.0000
  C   C81       1.0  0.85457  0.70372  0.98994  1.0000
  C   C82       1.0  0.84799  0.09692  0.98032  1.0000
  C   C83       1.0  0.36287  0.57834  0.69720  1.0000
  C   C84       1.0  0.36128  0.43273  0.69685  1.0000
  C   C85       1.0  0.38544  0.36988  0.71868  1.0000
  C   C86       1.0  0.38738  0.66013  0.72068  1.0000
  C   C87       1.0  0.66440  0.33374  0.22907  1.0000
  C   C88       1.0  0.68487  0.62921  0.23722  1.0000
  C   C89       1.0  0.64324  0.37752  0.20073  1.0000
  C   C90       1.0  0.66974  0.74076  0.22135  1.0000
  C   C91       1.0  0.64054  0.32331  0.17421  1.0000
  C   C92       1.0  0.67445  0.79399  0.19827  1.0000
  C   C93       1.0  0.65900  0.22196  0.17506  1.0000
  C   C94       1.0  0.69500  0.73861  0.19095  1.0000
  C   C95       1.0  0.67807  0.16901  0.20301  1.0000
  C   C96       1.0  0.71197  0.63491  0.20847  1.0000
  C   C97       1.0  0.68074  0.22406  0.22975  1.0000
  C   C98       1.0  0.70693  0.58073  0.23126  1.0000
  C   C99       1.0  0.66018  0.18122  0.14793  1.0000
  C   C100      1.0  0.69654  0.77246  0.16377  1.0000
  C   C101      1.0  0.41130  0.59758  0.74377  1.0000
  C   C102      1.0  0.41107  0.45145  0.74184  1.0000
  C   C103      1.0  0.97989  0.84039  0.63663  1.0000
  C   C104      1.0  0.95703  0.18189  0.63244  1.0000
  C   C105      1.0  0.92302  0.82930  0.60266  1.0000
  C   C106      1.0  0.89974  0.17609  0.60460  1.0000
  C   C107      1.0  0.95278  0.83443  0.60638  1.0000
  C   C108      1.0  0.92756  0.17621  0.60413  1.0000
  C   C109      1.0  0.95638  0.82988  0.58053  1.0000
  C   C110      1.0  0.92694  0.17070  0.57615  1.0000
  C   C111      1.0  0.93098  0.81666  0.55196  1.0000
  C   C112      1.0  0.89942  0.16924  0.54944  1.0000
  C   C113      1.0  0.90108  0.81157  0.54817  1.0000
  C   C114      1.0  0.87180  0.17811  0.54993  1.0000
  C   C115      1.0  0.89748  0.81856  0.57402  1.0000
  C   C116      1.0  0.87217  0.17728  0.57789  1.0000
  C   C117      1.0  0.97037  0.84826  0.71417  1.0000
  C   C118      1.0  0.02189  0.81872  0.76984  1.0000
  C   C119      1.0  0.02511  0.78889  0.90008  1.0000
  C   C120      1.0  0.03721  0.14877  0.90117  1.0000
  C   C121      1.0  0.02523  0.75355  0.87341  1.0000
  C   C122      1.0  0.03761  0.19045  0.87507  1.0000
  C   C123      1.0  0.30743  0.56018  0.67300  1.0000
  C   C124      1.0  0.30541  0.41441  0.67263  1.0000
  C   C125      1.0  0.28067  0.33621  0.67316  1.0000
  C   C126      1.0  0.28604  0.62755  0.67616  1.0000
  C   C127      1.0  0.76995  0.68491  0.43027  1.0000
  C   C128      1.0  0.79825  0.63718  0.43784  1.0000
  C   C129      1.0  0.82516  0.69431  0.46279  1.0000
  C   C130      1.0  0.82469  0.80187  0.48106  1.0000
  C   C131      1.0  0.79707  0.85792  0.47207  1.0000
  C   C132      1.0  0.76996  0.80088  0.44674  1.0000
  C   C133      1.0  0.82620  0.26983  0.52017  1.0000
  C   C134      1.0  0.85174  0.84593  0.51003  1.0000
  C   C135      1.0  0.26139  0.55017  0.67761  1.0000
  C   C136      1.0  0.25778  0.40281  0.67453  1.0000
  C   C137      1.0  0.36164  0.78422  0.33424  1.0000
  C   C138      1.0  0.35953  0.14636  0.34022  1.0000
  C   C139      1.0  0.38845  0.09756  0.31342  1.0000
  C   C140      1.0  0.38847  0.13754  0.33998  1.0000
  C   C141      1.0  0.41658  0.16884  0.36674  1.0000
  C   C142      1.0  0.44411  0.16507  0.36667  1.0000
  C   C143      1.0  0.44416  0.13127  0.33973  1.0000
  C   C144      1.0  0.41597  0.09283  0.31330  1.0000
  C   C145      1.0  0.33277  0.56378  0.64229  1.0000
  C   C146      1.0  0.33083  0.41815  0.64231  1.0000
  C   C147      1.0  0.32893  0.34161  0.61831  1.0000
  C   C148      1.0  0.33219  0.63232  0.61785  1.0000
  C   C149      1.0  0.55855  0.34287  0.32016  1.0000
  C   C150      1.0  0.55914  0.25884  0.34306  1.0000
  C   C151      1.0  0.53196  0.20121  0.34206  1.0000
  C   C152      1.0  0.50344  0.22495  0.31772  1.0000
  C   C153      1.0  0.50298  0.29819  0.29356  1.0000
  C   C154      1.0  0.53017  0.35626  0.29471  1.0000
  C   C155      1.0  0.47455  0.19134  0.31801  1.0000
  C   C156      1.0  0.48118  0.77053  0.31424  1.0000
  C   C157      1.0  0.93066  0.05524  0.00480  1.0000
  C   C158      1.0  0.93010  0.90840  0.00612  1.0000
  C   C159      1.0  0.08313  0.09518  0.07725  1.0000
  C   C160      1.0  0.08096  0.94779  0.07636  1.0000
  C   C161      1.0  0.00817  0.08104  0.92864  1.0000
  C   C162      1.0  0.00501  0.93338  0.92676  1.0000
  C   C163      1.0  0.98425  0.19882  0.68378  1.0000
  C   C164      1.0  0.00162  0.84142  0.68791  1.0000
  C   C165      1.0  0.99868  0.83631  0.71548  1.0000
  C   C166      1.0  0.99345  0.83010  0.76858  1.0000
  C   C167      1.0  0.01112  0.15649  0.90437  1.0000
  C   C168      1.0  0.00246  0.86438  0.89929  1.0000
  C   C169      1.0  0.01152  0.23657  0.85103  1.0000
  C   C170      1.0  0.00309  0.79492  0.84540  1.0000
  C   C171      1.0  0.01095  0.24968  0.82209  1.0000
  C   C172      1.0  0.00581  0.77548  0.81823  1.0000
  C   C173      1.0  0.68553  0.16973  0.99330  1.0000
  C   C174      1.0  0.69077  0.80228  0.99877  1.0000
  C   C175      1.0  0.71740  0.77344  0.99581  1.0000
  C   C176      1.0  0.77005  0.72595  0.99259  1.0000
  C   C177      1.0  0.90392  0.11705  0.00320  1.0000
  C   C178      1.0  0.90571  0.83065  0.01087  1.0000
  C   C179      1.0  0.85037  0.17781  0.00456  1.0000
  C   C180      1.0  0.85189  0.75535  0.01433  1.0000
  C   C181      1.0  0.82314  0.19548  0.00745  1.0000
  C   C182      1.0  0.82263  0.75211  0.01393  1.0000
  C   C183      1.0  0.30855  0.16872  0.31589  1.0000
  C   C184      1.0  0.31011  0.79539  0.31131  1.0000
  C   C185      1.0  0.19512  0.28402  0.18392  1.0000
  C   C186      1.0  0.19103  0.80661  0.17799  1.0000
  C   C187      1.0  0.66477  0.37214  0.33014  1.0000
  C   C188      1.0  0.67003  0.64199  0.32951  1.0000
  C   C189      1.0  0.33509  0.62935  0.67077  1.0000
  C   C190      1.0  0.33181  0.35977  0.67061  1.0000
  C   C191      1.0  0.00378  0.85954  0.95018  1.0000
  C   C192      1.0  0.00894  0.15127  0.95318  1.0000
  C   C193      1.0  0.95281  0.84298  0.00434  1.0000
  C   C194      1.0  0.95568  0.13417  0.00421  1.0000
  C   C195      1.0  0.05542  0.86947  0.05239  1.0000
  C   C196      1.0  0.06002  0.16096  0.05405  1.0000
  C   C197      1.0  0.00380  0.86791  0.00181  1.0000
  C   C198      1.0  0.00783  0.13748  0.00389  1.0000
  C   C199      1.0  0.97692  0.92252  0.00294  1.0000
  C   C200      1.0  0.97882  0.06823  0.00376  1.0000
  C   C201      1.0  0.03262  0.93635  0.02962  1.0000
  C   C202      1.0  0.03484  0.08208  0.03056  1.0000
  C   C203      1.0  0.00490  0.93084  0.97458  1.0000
  C   C204      1.0  0.00713  0.07661  0.97585  1.0000
  N   N1        1.0  0.95660  0.19283  0.65871  1.0000
  N   N2        1.0  0.97577  0.83970  0.66107  1.0000
  N   N3        1.0  0.14725  0.83846  0.67085  1.0000
  N   N4        1.0  0.11841  0.21473  0.64758  1.0000
  N   N5        1.0  0.68583  0.17569  0.02007  1.0000
  N   N6        1.0  0.69520  0.81695  0.02711  1.0000
  N   N7        1.0  0.52138  0.80961  0.87694  1.0000
  N   N8        1.0  0.52151  0.20716  0.85814  1.0000
  N   N9        1.0  0.33390  0.15406  0.31373  1.0000
  N   N10       1.0  0.33524  0.78906  0.30820  1.0000
  N   N11       1.0  0.34610  0.79475  0.47895  1.0000
  N   N12       1.0  0.34424  0.20067  0.48276  1.0000
  N   N13       1.0  0.66402  0.81119  0.97350  1.0000
  N   N14       1.0  0.66027  0.17476  0.96612  1.0000
  N   N15       1.0  0.64672  0.24704  0.12375  1.0000
  N   N16       1.0  0.67932  0.85554  0.14472  1.0000
  N   N17       1.0  0.03020  0.84646  0.69144  1.0000
  N   N18       1.0  0.01114  0.19540  0.68390  1.0000
  N   N19       1.0  0.84538  0.18648  0.52205  1.0000
  N   N20       1.0  0.87649  0.78831  0.51895  1.0000
  N   N21       1.0  0.31006  0.79761  0.33790  1.0000
  N   N22       1.0  0.30731  0.17139  0.34188  1.0000
  N   N23       1.0  0.47286  0.14197  0.34089  1.0000
  N   N24       1.0  0.47395  0.74021  0.33494  1.0000
  N   N25       1.0  0.98257  0.17784  0.63015  1.0000
  N   N26       1.0  0.00745  0.84443  0.63789  1.0000
  N   N27       1.0  0.98573  0.23847  0.79666  1.0000
  N   N28       1.0  0.98925  0.83601  0.79388  1.0000
  N   N29       1.0  0.63230  0.19833  0.99236  1.0000
  N   N30       1.0  0.64245  0.85095  0.00540  1.0000
  N   N31       1.0  0.79616  0.13567  0.98842  1.0000
  N   N32       1.0  0.79645  0.71282  0.99039  1.0000
  N   N33       1.0  0.36084  0.14932  0.36731  1.0000
  N   N34       1.0  0.36405  0.78741  0.36185  1.0000
  N   N35       1.0  0.19854  0.22078  0.20757  1.0000
  N   N36       1.0  0.19424  0.80285  0.20482  1.0000
  C  Sn1       1.0  0.08702  0.88887  0.64044  1.0000
  C   C205      1.0  0.11560  0.89282  0.66642  1.0000
  C  Sn2       1.0  0.11743  0.86515  0.69424  1.0000
  C  Sn3       1.0  0.09013  0.83276  0.69614  1.0000
  C   C206      1.0  0.06158  0.82879  0.67017  1.0000
  C  Sn4       1.0  0.05972  0.85648  0.64233  1.0000
  O  Te1       1.0  0.08573  0.91688  0.61285  1.0000
  O  Te2       1.0  0.14626  0.86977  0.71991  1.0000
  O  Te3       1.0  0.09144  0.80474  0.72375  1.0000
  O  Te4       1.0  0.03092  0.85184  0.61668  1.0000
  Mg  Mg1       1.0  0.13609  0.82378  0.75233  1.0000
  Mg  Mg2       1.0  0.04105  0.89774  0.58425  1.0000
  C  Sn5       1.0  0.22560  0.77558  0.66970  1.0000
  C   C207      1.0  0.24350  0.67322  0.68613  1.0000
  C  Sn6       1.0  0.23537  0.59110  0.70444  1.0000
  C  Sn7       1.0  0.20878  0.61164  0.70637  1.0000
  C   C208      1.0  0.19089  0.71393  0.68995  1.0000
  C  Sn8       1.0  0.19901  0.79613  0.67162  1.0000
  O  Te5       1.0  0.23416  0.85647  0.65153  1.0000
  O  Te6       1.0  0.25363  0.48945  0.72066  1.0000
  O  Te7       1.0  0.20023  0.53065  0.72456  1.0000
  O  Te8       1.0  0.18076  0.89770  0.65541  1.0000
  Mg  Mg3       1.0  0.23247  0.40545  0.74230  1.0000
  Mg  Mg4       1.0  0.20189  0.98171  0.63375  1.0000
  C  Sn9       1.0  0.20765  0.20224  0.69544  1.0000
  C   C209      1.0  0.17811  0.22855  0.67436  1.0000
  C  Sn10      1.0  0.17304  0.29437  0.64808  1.0000
  C  Sn11      1.0  0.19803  0.33466  0.64275  1.0000
  C   C210      1.0  0.22755  0.30832  0.66382  1.0000
  C  Sn12      1.0  0.23264  0.24252  0.69011  1.0000
  O  Te9       1.0  0.23384  0.13630  0.72155  1.0000
  O  Te10      1.0  0.14330  0.31961  0.62734  1.0000
  O  Te11      1.0  0.19347  0.40064  0.61661  1.0000
  O  Te12      1.0  0.26235  0.21726  0.71084  1.0000
  Mg  Mg5       1.0  0.14876  0.41232  0.59513  1.0000
  Mg  Mg6       1.0  0.27858  0.12450  0.74305  1.0000
  C  Sn13      1.0  0.75996  0.21005  0.96508  1.0000
  C   C211      1.0  0.78828  0.18308  0.98866  1.0000
  C  Sn14      1.0  0.29497  0.86376  0.01510  1.0000
  C  Sn15      1.0  0.26816  0.83667  0.01803  1.0000
  C   C212      1.0  0.73523  0.12953  0.99446  1.0000
  C  Sn16      1.0  0.73315  0.18296  0.96801  1.0000
  O  Te13      1.0  0.73679  0.26343  0.93885  1.0000
  O  Te14      1.0  0.32354  0.83768  0.03837  1.0000
  O  Te15      1.0  0.26970  0.78326  0.04429  1.0000
  O  Te16      1.0  0.70460  0.20902  0.94475  1.0000
  Mg  Mg7       1.0  0.31385  0.76488  0.06968  1.0000
  Mg  Mg8       1.0  0.69261  0.28174  0.91342  1.0000
  C  Sn17      1.0  0.77196  0.47415  0.47134  1.0000
  C   C213      1.0  0.76267  0.42365  0.44203  1.0000
  C  Sn18      1.0  0.76973  0.29429  0.43700  1.0000
  C  Sn19      1.0  0.78642  0.21368  0.46177  1.0000
  C   C214      1.0  0.79570  0.26416  0.49106  1.0000
  C  Sn20      1.0  0.78865  0.39353  0.49612  1.0000
  O  Te17      1.0  0.76465  0.60374  0.47585  1.0000
  O  Te18      1.0  0.76020  0.24602  0.40749  1.0000
  O  Te19      1.0  0.81538  0.08399  0.45724  1.0000
  O  Te20      1.0  0.79816  0.44179  0.52560  1.0000
  Mg  Mg9       1.0  0.79734  0.06306  0.41290  1.0000
  Mg  Mg10      1.0  0.78267  0.62470  0.52022  1.0000
  C  Sn21      1.0  0.34936  0.38418  0.55204  1.0000
  C   C215      1.0  0.32934  0.35405  0.56373  1.0000
  C  Sn22      1.0  0.30952  0.22945  0.55502  1.0000
  C  Sn23      1.0  0.33137  0.13289  0.53420  1.0000
  C   C216      1.0  0.32973  0.16302  0.52253  1.0000
  C  Sn24      1.0  0.34956  0.28762  0.53122  1.0000
  O  Te21      1.0  0.36898  0.50938  0.56106  1.0000
  O  Te22      1.0  0.28971  0.20166  0.56700  1.0000
  O  Te23      1.0  0.31173  0.00761  0.52518  1.0000
  O  Te24      1.0  0.36936  0.31541  0.51925  1.0000
  Mg  Mg11      1.0  0.28897  0.01694  0.54779  1.0000
  Mg  Mg12      1.0  0.39178  0.50006  0.53846  1.0000
  C  Sn25      1.0  0.64782  0.91220  0.06845  1.0000
  C   C217      1.0  0.67078  0.89962  0.06082  1.0000
  C  Sn26      1.0  0.69889  0.85916  0.08204  1.0000
  C  Sn27      1.0  0.70415  0.83058  0.11149  1.0000
  C   C218      1.0  0.68119  0.84313  0.11910  1.0000
  C  Sn28      1.0  0.65308  0.88361  0.09790  1.0000
  O  Te25      1.0  0.61989  0.95279  0.04688  1.0000
  O  Te26      1.0  0.72150  0.84735  0.07389  1.0000
  O  Te27      1.0  0.73210  0.78996  0.13306  1.0000
  O  Te28      1.0  0.63047  0.89540  0.10604  1.0000
  Mg  Mg13      1.0  0.75575  0.78857  0.11117  1.0000
  Mg  Mg14      1.0  0.59621  0.95410  0.06877  1.0000
  C  Sn29      1.0  0.25878  0.81923  0.23276  1.0000
  C   C219      1.0  0.22920  0.78199  0.22865  1.0000
  C  Sn30      1.0  0.22457  0.76242  0.25349  1.0000
  C  Sn31      1.0  0.25002  0.78052  0.28307  1.0000
  C   C220      1.0  0.27957  0.81776  0.28718  1.0000
  C  Sn32      1.0  0.28423  0.83733  0.26235  1.0000
  O  Te29      1.0  0.26287  0.83827  0.20760  1.0000
  O  Te30      1.0  0.19479  0.72517  0.24881  1.0000
  O  Te31      1.0  0.24591  0.76145  0.30825  1.0000
  O  Te32      1.0  0.31398  0.87459  0.26702  1.0000
  Mg  Mg15      1.0  0.20095  0.71113  0.29027  1.0000
  Mg  Mg16      1.0  0.30785  0.88872  0.22557  1.0000
  C  Sn33      1.0  0.62786  0.26857  0.04891  1.0000
  C   C221      1.0  0.65357  0.24101  0.04684  1.0000
  C  Sn34      1.0  0.67844  0.19291  0.07146  1.0000
  C  Sn35      1.0  0.67758  0.17183  0.09873  1.0000
  C   C222      1.0  0.65187  0.19937  0.10079  1.0000
  C  Sn36      1.0  0.62700  0.24749  0.07618  1.0000
  O  Te33      1.0  0.60327  0.31658  0.02401  1.0000
  O  Te34      1.0  0.70390  0.16612  0.06885  1.0000
  O  Te35      1.0  0.70220  0.12379  0.12364  1.0000
  O  Te36      1.0  0.60155  0.27425  0.07878  1.0000
  Mg  Mg17      1.0  0.73172  0.10205  0.10902  1.0000
  Mg  Mg18      1.0  0.57371  0.33826  0.03862  1.0000
  C  Sn37      1.0  0.52018  0.73064  0.29004  1.0000
  C   C223      1.0  0.50809  0.71076  0.30967  1.0000
  C  Sn38      1.0  0.52595  0.66619  0.33858  1.0000
  C  Sn39      1.0  0.55654  0.64104  0.34808  1.0000
  C   C224      1.0  0.56862  0.66094  0.32846  1.0000
  C  Sn40      1.0  0.55077  0.70549  0.29954  1.0000
  O  Te37      1.0  0.50191  0.77525  0.26125  1.0000
  O  Te38      1.0  0.51336  0.64700  0.35780  1.0000
  O  Te39      1.0  0.57481  0.59639  0.37690  1.0000
  O  Te40      1.0  0.56335  0.72470  0.28033  1.0000
  Mg  Mg19      1.0  0.54735  0.58520  0.39487  1.0000
  Mg  Mg20      1.0  0.52938  0.78657  0.24327  1.0000
  C  Sn41      1.0  0.15304  0.32981  0.12164  1.0000
  C   C225      1.0  0.16014  0.31101  0.15155  1.0000
  C  Sn42      1.0  0.14219  0.21171  0.15826  1.0000
  C  Sn43      1.0  0.11662  0.12941  0.13458  1.0000
  C   C226      1.0  0.10953  0.14821  0.10470  1.0000
  C  Sn44      1.0  0.12746  0.24751  0.09796  1.0000
  O  Te41      1.0  0.17130  0.42968  0.11545  1.0000
  O  Te42      1.0  0.14974  0.19484  0.18833  1.0000
  O  Te43      1.0  0.12001  0.02948  0.14079  1.0000
  O  Te44      1.0  0.11993  0.26438  0.06791  1.0000
  Mg  Mg21      1.0  0.13957  0.04521  0.18533  1.0000
  Mg  Mg22      1.0  0.15175  0.41392  0.07089  1.0000
  C  Sn45      1.0  0.14041  0.85574  0.10073  1.0000
  C   C227      1.0  0.11095  0.84766  0.09748  1.0000
  C  Sn46      1.0  0.10665  0.83278  0.12261  1.0000
  C  Sn47      1.0  0.13232  0.82592  0.15159  1.0000
  C   C228      1.0  0.16176  0.83402  0.15483  1.0000
  C  Sn48      1.0  0.16609  0.84888  0.12971  1.0000
  O  Te45      1.0  0.14418  0.87061  0.07529  1.0000
  O  Te46      1.0  0.07698  0.82489  0.11879  1.0000
  O  Te47      1.0  0.12853  0.81104  0.17703  1.0000
  O  Te48      1.0  0.19573  0.85680  0.13351  1.0000
  Mg  Mg23      1.0  0.08361  0.80498  0.16031  1.0000
  Mg  Mg24      1.0  0.18913  0.87678  0.09202  1.0000
  C  Sn49      1.0  0.23046  0.21875  0.26858  1.0000
  C   C229      1.0  0.22790  0.24487  0.24040  1.0000
  C  Sn50      1.0  0.25231  0.23017  0.23506  1.0000
  C  Sn51      1.0  0.27985  0.18840  0.25838  1.0000
  C   C230      1.0  0.28240  0.16228  0.28654  1.0000
  C  Sn52      1.0  0.25801  0.17698  0.29190  1.0000
  O  Te49      1.0  0.20577  0.23410  0.27341  1.0000
  O  Te50      1.0  0.24920  0.25692  0.20670  1.0000
  O  Te51      1.0  0.30455  0.17307  0.25352  1.0000
  O  Te52      1.0  0.26110  0.15023  0.32024  1.0000
  Mg  Mg25      1.0  0.28925  0.22145  0.21110  1.0000
  Mg  Mg26      1.0  0.22106  0.18559  0.31586  1.0000
  C  Sn53      1.0  0.57618  0.81968  0.95211  1.0000
  C   C231      1.0  0.60374  0.80410  0.95250  1.0000
  C  Sn54      1.0  0.60568  0.81134  0.92597  1.0000
  C  Sn55      1.0  0.57953  0.83473  0.89848  1.0000
  C   C232      1.0  0.55199  0.85033  0.89810  1.0000
  C  Sn56      1.0  0.55003  0.84308  0.92462  1.0000
  O  Te53      1.0  0.57477  0.81207  0.97891  1.0000
  O  Te54      1.0  0.63348  0.79539  0.92692  1.0000
  O  Te55      1.0  0.58096  0.84233  0.87167  1.0000
  O  Te56      1.0  0.52225  0.85904  0.92368  1.0000
  Mg  Mg27      1.0  0.62395  0.81415  0.88449  1.0000
  Mg  Mg28      1.0  0.53176  0.84037  0.96610  1.0000
  C  Sn57      1.0  0.59132  0.18281  0.93453  1.0000
  C   C233      1.0  0.61985  0.15982  0.93802  1.0000
  C  Sn58      1.0  0.62530  0.16742  0.91350  1.0000
  C  Sn59      1.0  0.60175  0.19875  0.88491  1.0000
  C   C234      1.0  0.57324  0.22174  0.88143  1.0000
  C  Sn60      1.0  0.56777  0.21414  0.90593  1.0000
  O  Te57      1.0  0.58639  0.17469  0.95935  1.0000
  O  Te58      1.0  0.65401  0.14398  0.91754  1.0000
  O  Te59      1.0  0.60671  0.20685  0.86008  1.0000
  O  Te60      1.0  0.53909  0.23758  0.90190  1.0000
  Mg  Mg29      1.0  0.64963  0.16671  0.87690  1.0000
  Mg  Mg30      1.0  0.54345  0.21494  0.94253  1.0000
  C  Sn61      1.0  0.39419  0.68879  0.30653  1.0000
  C   C235      1.0  0.39048  0.73457  0.33051  1.0000
  C  Sn62      1.0  0.41532  0.80539  0.35599  1.0000
  C  Sn63      1.0  0.44447  0.83107  0.35752  1.0000
  C   C236      1.0  0.44816  0.78533  0.33356  1.0000
  C  Sn64      1.0  0.42333  0.71448  0.30807  1.0000
  O  Te61      1.0  0.36903  0.61821  0.28129  1.0000
  O  Te62      1.0  0.41106  0.85010  0.37968  1.0000
  O  Te63      1.0  0.46963  0.90172  0.38280  1.0000
  O  Te64      1.0  0.42758  0.66980  0.28439  1.0000
  Mg  Mg31      1.0  0.45232  0.94203  0.40927  1.0000
  Mg  Mg32      1.0  0.38634  0.57793  0.25478  1.0000
  C  Sn65      1.0  0.07353  0.25216  0.68191  1.0000
  C   C237      1.0  0.04326  0.22689  0.65841  1.0000
  C  Sn66      1.0  0.03696  0.17284  0.63022  1.0000
  C  Sn67      1.0  0.08307  0.14333  0.62543  1.0000
  C   C238      1.0  0.11332  0.16857  0.64893  1.0000
  C  Sn68      1.0  0.09798  0.22265  0.67712  1.0000
  O  Te65      1.0  0.07929  0.30623  0.70989  1.0000
  O  Te66      1.0  0.02818  0.14849  0.60707  1.0000
  O  Te67      1.0  0.07728  0.08923  0.59742  1.0000
  O  Te68      1.0  0.12840  0.24697  0.70026  1.0000
  Mg  Mg33      1.0  0.03200  0.07387  0.57295  1.0000
  Mg  Mg34      1.0  0.12461  0.32152  0.73439  1.0000
  C  Sn69      1.0  0.96235  0.29683  0.72146  1.0000
  C   C239      1.0  0.98406  0.25030  0.71499  1.0000
  C  Sn70      1.0  0.02869  0.17732  0.73599  1.0000
  C  Sn71      1.0  0.02998  0.15020  0.76404  1.0000
  C   C240      1.0  0.00827  0.19669  0.77050  1.0000
  C  Sn72      1.0  0.96364  0.26971  0.74951  1.0000
  O  Te69      1.0  0.93959  0.36958  0.70012  1.0000
  O  Te70      1.0  0.05015  0.13189  0.72902  1.0000
  O  Te71      1.0  0.05276  0.07738  0.78538  1.0000
  O  Te72      1.0  0.94219  0.31510  0.75647  1.0000
  Mg  Mg35      1.0  0.07678  0.03687  0.76543  1.0000
  Mg  Mg36      1.0  0.91554  0.41006  0.72007  1.0000
