data_image0
_chemical_formula_structural       H42C96N36C2Sn2C2HTe2HMgC2Sn2C2HTe2HMgC2Sn2C2HTe2HMgC2Sn2C2HTe2HMgC2Sn2C2HTe2HMgC2Sn2C2HTe2HMgC2Sn2C2HTe2HMgC2Sn2C2HTe2HMgC2Sn2C2HTe2HMgC2Sn2C2HTe2HMgC2Sn2C2HTe2HMgC2Sn2C2HTe2HMgC2Sn2C2HTe2HMgC2Sn2C2HTe2HMgC2Sn2C2HTe2HMgC2Sn2C2HTe2HMgC2Sn2C2HTe2HMgC2Sn2C2HTe2HMgC2Sn2C2HTe2HMgC2Sn2C2HTe2HMgC2Sn2C2HTe2HMgC2Sn2C2HTe2HMgC2Sn2C2HTe2HMgC2Sn2C2HTe2HMgC2Sn2C2HTe2HMgC2Sn2C2HTe2HMgC2Sn2C2HTe2HMgC2Sn2C2HTe2HMgC2Sn2C2HTe2HMgC2Sn2C2HTe2HMgC2Sn2C2HTe2HMgC2Sn2C2HTe2HMgC2Sn2C2HTe2HMgC2Sn2C2HTe2HMgC2Sn2C2HTe2HMgC2Sn2C2HTe2HMg
_chemical_formula_sum              "H114 C240 N36 Sn72 Te72 Mg36"
_cell_length_a       50.1353
_cell_length_b       9.68969
_cell_length_c       50.7474
_cell_angle_alpha    89.7673
_cell_angle_beta     118.927
_cell_angle_gamma    96.4334

_symmetry_space_group_name_H-M    'P1'
_space_group_IT_number       1

loop_
  _space_group_symop_operation_xyz
  'x, y, z'

loop_
  _atom_site_type_symbol
  _atom_site_label
  _atom_site_symmetry_multiplicity
  _atom_site_fract_x
  _atom_site_fract_y
  _atom_site_fract_z
  _atom_site_occupancy
  H   H1        1.0  0.72380  0.78144  0.38069  1.0000
  H   H2        1.0  0.70846  0.26689  0.38477  1.0000
  H   H3        1.0  0.16261  0.71717  0.70833  1.0000
  H   H4        1.0  0.14502  0.10522  0.68512  1.0000
  H   H5        1.0  0.68152  0.75042  0.28295  1.0000
  H   H6        1.0  0.66185  0.23379  0.27878  1.0000
  H   H7        1.0  0.53140  0.93311  0.84827  1.0000
  H   H8        1.0  0.54227  0.32054  0.83643  1.0000
  H   H9        1.0  0.61772  0.76061  0.32518  1.0000
  H   H10       1.0  0.60897  0.24373  0.32589  1.0000
  H   H11       1.0  0.30244  0.68392  0.46206  1.0000
  H   H12       1.0  0.30565  0.06781  0.47692  1.0000
  H   H13       1.0  0.38513  0.25762  0.71770  1.0000
  H   H14       1.0  0.38779  0.77235  0.72187  1.0000
  H   H15       1.0  0.67318  0.09432  0.14953  1.0000
  H   H16       1.0  0.71137  0.71360  0.15891  1.0000
  H   H17       1.0  0.27823  0.22322  0.67148  1.0000
  H   H18       1.0  0.28854  0.74044  0.67820  1.0000
  H   H19       1.0  0.83027  0.33376  0.53990  1.0000
  H   H20       1.0  0.84962  0.92686  0.52369  1.0000
  H   H21       1.0  0.32837  0.22912  0.61853  1.0000
  H   H22       1.0  0.33341  0.74505  0.61764  1.0000
  H   H23       1.0  0.45413  0.22255  0.29831  1.0000
  H   H24       1.0  0.46631  0.82304  0.29395  1.0000
  H   H25       1.0  0.03360  0.26075  0.82331  1.0000
  H   H26       1.0  0.02289  0.70879  0.81988  1.0000
  H   H27       1.0  0.82703  0.26231  0.02678  1.0000
  H   H28       1.0  0.82402  0.79702  0.03454  1.0000
  H   H29       1.0  0.21396  0.34849  0.18267  1.0000
  H   H30       1.0  0.21058  0.80427  0.17383  1.0000
  H   H31       1.0  0.66257  0.25871  0.33058  1.0000
  H   H32       1.0  0.67214  0.75545  0.32905  1.0000
  H   H33       1.0  0.33637  0.74278  0.67087  1.0000
  H   H34       1.0  0.33055  0.24626  0.67044  1.0000
  H   H35       1.0  0.00139  0.74652  0.94876  1.0000
  H   H36       1.0  0.01147  0.26432  0.95453  1.0000
  H   H37       1.0  0.95178  0.73038  0.00489  1.0000
  H   H38       1.0  0.95649  0.24669  0.00361  1.0000
  H   H39       1.0  0.05388  0.75663  0.05154  1.0000
  H   H40       1.0  0.06181  0.27381  0.05490  1.0000
  H   H41       1.0  0.00192  0.75423  0.00093  1.0000
  H   H42       1.0  0.00964  0.25117  0.00477  1.0000
  C   C1        1.0  0.58679  0.42518  0.32340  1.0000
  C   C2        1.0  0.58918  0.57238  0.32323  1.0000
  C   C3        1.0  0.00915  0.18604  0.65644  1.0000
  C   C4        1.0  0.03182  0.84830  0.66571  1.0000
  C   C5        1.0  0.69211  0.44383  0.35850  1.0000
  C   C6        1.0  0.69525  0.58951  0.35806  1.0000
  C   C7        1.0  0.72006  0.66923  0.38167  1.0000
  C   C8        1.0  0.71202  0.37909  0.38373  1.0000
  C   C9        1.0  0.16694  0.76728  0.69105  1.0000
  C   C10       1.0  0.14371  0.17078  0.66693  1.0000
  C   C11       1.0  0.73631  0.45864  0.40854  1.0000
  C   C12       1.0  0.74137  0.60459  0.40668  1.0000
  C   C13       1.0  0.63421  0.18843  0.96692  1.0000
  C   C14       1.0  0.64038  0.83383  0.97807  1.0000
  C   C15       1.0  0.66819  0.42582  0.30351  1.0000
  C   C16       1.0  0.67174  0.57165  0.30368  1.0000
  C   C17       1.0  0.67687  0.63770  0.28196  1.0000
  C   C18       1.0  0.66664  0.34650  0.27991  1.0000
  C   C19       1.0  0.51494  0.85862  0.85114  1.0000
  C   C20       1.0  0.52099  0.27107  0.83554  1.0000
  C   C21       1.0  0.66989  0.41207  0.25665  1.0000
  C   C22       1.0  0.67689  0.55885  0.25881  1.0000
  C   C23       1.0  0.33419  0.16121  0.36703  1.0000
  C   C24       1.0  0.33776  0.79453  0.36262  1.0000
  C   C25       1.0  0.63708  0.43249  0.32776  1.0000
  C   C26       1.0  0.63957  0.57804  0.32720  1.0000
  C   C27       1.0  0.61576  0.64765  0.32493  1.0000
  C   C28       1.0  0.61108  0.35672  0.32599  1.0000
  C   C29       1.0  0.32354  0.73249  0.48186  1.0000
  C   C30       1.0  0.32512  0.14606  0.49111  1.0000
  C   C31       1.0  0.32957  0.55601  0.59294  1.0000
  C   C32       1.0  0.32875  0.40922  0.59372  1.0000
  C   C33       1.0  0.67037  0.84195  0.02912  1.0000
  C   C34       1.0  0.65855  0.19092  0.01835  1.0000
  C   C35       1.0  0.36287  0.57834  0.69720  1.0000
  C   C36       1.0  0.36128  0.43273  0.69685  1.0000
  C   C37       1.0  0.38544  0.36988  0.71868  1.0000
  C   C38       1.0  0.38738  0.66013  0.72068  1.0000
  C   C39       1.0  0.66018  0.18122  0.14793  1.0000
  C   C40       1.0  0.69654  0.77246  0.16377  1.0000
  C   C41       1.0  0.41130  0.59758  0.74377  1.0000
  C   C42       1.0  0.41107  0.45145  0.74184  1.0000
  C   C43       1.0  0.97989  0.84039  0.63663  1.0000
  C   C44       1.0  0.95703  0.18189  0.63244  1.0000
  C   C45       1.0  0.30743  0.56018  0.67300  1.0000
  C   C46       1.0  0.30541  0.41441  0.67263  1.0000
  C   C47       1.0  0.28067  0.33621  0.67316  1.0000
  C   C48       1.0  0.28604  0.62755  0.67616  1.0000
  C   C49       1.0  0.82620  0.26983  0.52017  1.0000
  C   C50       1.0  0.85174  0.84593  0.51003  1.0000
  C   C51       1.0  0.26139  0.55017  0.67761  1.0000
  C   C52       1.0  0.25778  0.40281  0.67453  1.0000
  C   C53       1.0  0.36164  0.78422  0.33424  1.0000
  C   C54       1.0  0.35953  0.14636  0.34022  1.0000
  C   C55       1.0  0.33277  0.56378  0.64229  1.0000
  C   C56       1.0  0.33083  0.41815  0.64231  1.0000
  C   C57       1.0  0.32893  0.34161  0.61831  1.0000
  C   C58       1.0  0.33219  0.63232  0.61785  1.0000
  C   C59       1.0  0.47455  0.19134  0.31801  1.0000
  C   C60       1.0  0.48118  0.77053  0.31424  1.0000
  C   C61       1.0  0.93066  0.05524  0.00480  1.0000
  C   C62       1.0  0.93010  0.90840  0.00612  1.0000
  C   C63       1.0  0.08313  0.09518  0.07725  1.0000
  C   C64       1.0  0.08096  0.94779  0.07636  1.0000
  C   C65       1.0  0.00817  0.08104  0.92864  1.0000
  C   C66       1.0  0.00501  0.93338  0.92676  1.0000
  C   C67       1.0  0.98425  0.19882  0.68378  1.0000
  C   C68       1.0  0.00162  0.84142  0.68791  1.0000
  C   C69       1.0  0.01095  0.24968  0.82209  1.0000
  C   C70       1.0  0.00581  0.77548  0.81823  1.0000
  C   C71       1.0  0.68553  0.16973  0.99330  1.0000
  C   C72       1.0  0.69077  0.80228  0.99877  1.0000
  C   C73       1.0  0.82314  0.19548  0.00745  1.0000
  C   C74       1.0  0.82263  0.75211  0.01393  1.0000
  C   C75       1.0  0.30855  0.16872  0.31589  1.0000
  C   C76       1.0  0.31011  0.79539  0.31131  1.0000
  C   C77       1.0  0.19512  0.28402  0.18392  1.0000
  C   C78       1.0  0.19103  0.80661  0.17799  1.0000
  C   C79       1.0  0.66477  0.37214  0.33014  1.0000
  C   C80       1.0  0.67003  0.64199  0.32951  1.0000
  C   C81       1.0  0.33509  0.62935  0.67077  1.0000
  C   C82       1.0  0.33181  0.35977  0.67061  1.0000
  C   C83       1.0  0.00378  0.85954  0.95018  1.0000
  C   C84       1.0  0.00894  0.15127  0.95318  1.0000
  C   C85       1.0  0.95281  0.84298  0.00434  1.0000
  C   C86       1.0  0.95568  0.13417  0.00421  1.0000
  C   C87       1.0  0.05542  0.86947  0.05239  1.0000
  C   C88       1.0  0.06002  0.16096  0.05405  1.0000
  C   C89       1.0  0.00380  0.86791  0.00181  1.0000
  C   C90       1.0  0.00783  0.13748  0.00389  1.0000
  C   C91       1.0  0.97692  0.92252  0.00294  1.0000
  C   C92       1.0  0.97882  0.06823  0.00376  1.0000
  C   C93       1.0  0.03262  0.93635  0.02962  1.0000
  C   C94       1.0  0.03484  0.08208  0.03056  1.0000
  C   C95       1.0  0.00490  0.93084  0.97458  1.0000
  C   C96       1.0  0.00713  0.07661  0.97585  1.0000
  N   N1        1.0  0.95660  0.19283  0.65871  1.0000
  N   N2        1.0  0.97577  0.83970  0.66107  1.0000
  N   N3        1.0  0.14725  0.83846  0.67085  1.0000
  N   N4        1.0  0.11841  0.21473  0.64758  1.0000
  N   N5        1.0  0.68583  0.17569  0.02007  1.0000
  N   N6        1.0  0.69520  0.81695  0.02711  1.0000
  N   N7        1.0  0.52138  0.80961  0.87694  1.0000
  N   N8        1.0  0.52151  0.20716  0.85814  1.0000
  N   N9        1.0  0.33390  0.15406  0.31373  1.0000
  N   N10       1.0  0.33524  0.78906  0.30820  1.0000
  N   N11       1.0  0.34610  0.79475  0.47895  1.0000
  N   N12       1.0  0.34424  0.20067  0.48276  1.0000
  N   N13       1.0  0.66402  0.81119  0.97350  1.0000
  N   N14       1.0  0.66027  0.17476  0.96612  1.0000
  N   N15       1.0  0.64672  0.24704  0.12375  1.0000
  N   N16       1.0  0.67932  0.85554  0.14472  1.0000
  N   N17       1.0  0.03020  0.84646  0.69144  1.0000
  N   N18       1.0  0.01114  0.19540  0.68390  1.0000
  N   N19       1.0  0.84538  0.18648  0.52205  1.0000
  N   N20       1.0  0.87649  0.78831  0.51895  1.0000
  N   N21       1.0  0.31006  0.79761  0.33790  1.0000
  N   N22       1.0  0.30731  0.17139  0.34188  1.0000
  N   N23       1.0  0.47286  0.14197  0.34089  1.0000
  N   N24       1.0  0.47395  0.74021  0.33494  1.0000
  N   N25       1.0  0.98257  0.17784  0.63015  1.0000
  N   N26       1.0  0.00745  0.84443  0.63789  1.0000
  N   N27       1.0  0.98573  0.23847  0.79666  1.0000
  N   N28       1.0  0.98925  0.83601  0.79388  1.0000
  N   N29       1.0  0.63230  0.19833  0.99236  1.0000
  N   N30       1.0  0.64245  0.85095  0.00540  1.0000
  N   N31       1.0  0.79616  0.13567  0.98842  1.0000
  N   N32       1.0  0.79645  0.71282  0.99039  1.0000
  N   N33       1.0  0.36084  0.14932  0.36731  1.0000
  N   N34       1.0  0.36405  0.78741  0.36185  1.0000
  N   N35       1.0  0.19854  0.22078  0.20757  1.0000
  N   N36       1.0  0.19424  0.80285  0.20482  1.0000
  C   C97       1.0  0.05468  0.16684  0.62081  1.0000
  C   C98       1.0  0.08506  0.20029  0.64366  1.0000
  C  Sn1       1.0  0.09171  0.22055  0.67358  1.0000
  C  Sn2       1.0  0.06745  0.20698  0.68067  1.0000
  C   C99       1.0  0.05880  0.17339  0.65765  1.0000
  C   C100      1.0  0.05240  0.15337  0.62779  1.0000
  H   H43       1.0  0.07139  0.15128  0.59771  1.0000
  O  Te1       1.0  0.12218  0.25397  0.69613  1.0000
  O  Te2       1.0  0.07345  0.22662  0.71038  1.0000
  H   H44       1.0  0.02889  0.12739  0.61011  1.0000
  Mg  Mg1       1.0  0.11873  0.27076  0.73322  1.0000
  C   C101      1.0  0.09753  0.86078  0.70091  1.0000
  C   C102      1.0  0.06893  0.86454  0.67533  1.0000
  C  Sn3       1.0  0.06607  0.85689  0.64657  1.0000
  C  Sn4       1.0  0.09237  0.84524  0.64343  1.0000
  C   C103      1.0  0.12087  0.84147  0.66916  1.0000
  C   C104      1.0  0.12348  0.84924  0.69783  1.0000
  H   H45       1.0  0.09955  0.86672  0.72309  1.0000
  O  Te3       1.0  0.03732  0.86084  0.62125  1.0000
  O  Te4       1.0  0.09016  0.83736  0.61496  1.0000
  H   H46       1.0  0.14562  0.84624  0.71763  1.0000
  Mg  Mg2       1.0  0.04599  0.84688  0.58726  1.0000
  C   C105      1.0  0.95700  0.26897  0.73480  1.0000
  C   C106      1.0  0.97932  0.23198  0.76286  1.0000
  C  Sn5       1.0  0.02785  0.18698  0.76603  1.0000
  C  Sn6       1.0  0.03239  0.17900  0.74060  1.0000
  C   C107      1.0  0.98828  0.21634  0.71262  1.0000
  C   C108      1.0  0.96147  0.26119  0.70970  1.0000
  H   H47       1.0  0.93627  0.30375  0.73254  1.0000
  O  Te5       1.0  0.04991  0.15036  0.79423  1.0000
  O  Te6       1.0  0.05904  0.13442  0.74313  1.0000
  H   H48       1.0  0.94420  0.28991  0.68798  1.0000
  Mg  Mg3       1.0  0.08240  0.09580  0.78630  1.0000
  C   C109      1.0  0.96525  0.84660  0.71765  1.0000
  C   C110      1.0  0.99144  0.84545  0.71453  1.0000
  C  Sn7       1.0  0.01975  0.83124  0.73967  1.0000
  C  Sn8       1.0  0.02182  0.81793  0.76844  1.0000
  C   C111      1.0  0.99548  0.81912  0.77131  1.0000
  C   C112      1.0  0.96727  0.83343  0.74601  1.0000
  H   H49       1.0  0.94342  0.85760  0.69808  1.0000
  O  Te7       1.0  0.04569  0.83034  0.73616  1.0000
  O  Te8       1.0  0.04983  0.80354  0.79393  1.0000
  H   H50       1.0  0.94699  0.83423  0.74843  1.0000
  Mg  Mg4       1.0  0.07869  0.80821  0.77765  1.0000
  C   C113      1.0  0.98273  0.23561  0.87457  1.0000
  C   C114      1.0  0.02629  0.17310  0.89924  1.0000
  C  Sn9       1.0  0.05390  0.15011  0.90052  1.0000
  C  Sn10      1.0  0.05963  0.19060  0.87663  1.0000
  C   C115      1.0  0.01592  0.25315  0.85206  1.0000
  C   C116      1.0  0.98836  0.27562  0.85101  1.0000
  H   H51       1.0  0.96142  0.25307  0.87376  1.0000
  O  Te9       1.0  0.07554  0.08749  0.92532  1.0000
  O  Te10      1.0  0.08703  0.16889  0.87734  1.0000
  H   H52       1.0  0.97141  0.32410  0.83191  1.0000
  Mg  Mg5       1.0  0.10940  0.07980  0.91595  1.0000
  C   C117      1.0  0.02840  0.76854  0.89633  1.0000
  C   C118      1.0  0.00906  0.84930  0.90029  1.0000
  C  Sn11      1.0  0.98422  0.89556  0.87531  1.0000
  C  Sn12      1.0  0.97870  0.86011  0.84585  1.0000
  C   C119      1.0  0.99817  0.77919  0.84212  1.0000
  C   C120      1.0  0.02296  0.73349  0.86727  1.0000
  H   H53       1.0  0.04757  0.73311  0.91579  1.0000
  O  Te11      1.0  0.96513  0.97620  0.87968  1.0000
  O  Te12      1.0  0.95403  0.90492  0.82048  1.0000
  H   H54       1.0  0.03792  0.67089  0.86420  1.0000
  Mg  Mg6       1.0  0.93450  0.01253  0.83804  1.0000
  C   C121      1.0  0.21788  0.74900  0.66183  1.0000
  C   C122      1.0  0.23820  0.65755  0.67983  1.0000
  C  Sn13      1.0  0.23584  0.60045  0.70405  1.0000
  C  Sn14      1.0  0.21267  0.63573  0.71031  1.0000
  C   C123      1.0  0.19244  0.72724  0.69216  1.0000
  C   C124      1.0  0.19502  0.78381  0.66798  1.0000
  H   H55       1.0  0.21986  0.79271  0.64311  1.0000
  O  Te13      1.0  0.25633  0.50929  0.72182  1.0000
  O  Te14      1.0  0.20979  0.58013  0.73438  1.0000
  H   H56       1.0  0.17927  0.85454  0.65404  1.0000
  Mg  Mg7       1.0  0.24317  0.46059  0.75209  1.0000
  C   C125      1.0  0.19218  0.35645  0.64312  1.0000
  C   C126      1.0  0.22201  0.33645  0.66472  1.0000
  C  Sn15      1.0  0.22679  0.24172  0.68695  1.0000
  C  Sn16      1.0  0.22285  0.16572  0.68751  1.0000
  C   C127      1.0  0.17144  0.18640  0.66578  1.0000
  C   C128      1.0  0.16692  0.28149  0.64364  1.0000
  H   H57       1.0  0.18867  0.42996  0.62598  1.0000
  O  Te15      1.0  0.25675  0.22306  0.70837  1.0000
  O  Te16      1.0  0.22697  0.07034  0.70947  1.0000
  H   H58       1.0  0.14382  0.29688  0.62691  1.0000
  Mg  Mg8       1.0  0.27223  0.08133  0.73380  1.0000
  C   C129      1.0  0.60661  0.16881  0.88721  1.0000
  C   C130      1.0  0.57754  0.18488  0.88319  1.0000
  C  Sn17      1.0  0.57369  0.21268  0.90805  1.0000
  C  Sn18      1.0  0.59947  0.22459  0.93746  1.0000
  C   C131      1.0  0.62846  0.20843  0.94125  1.0000
  C   C132      1.0  0.63205  0.18059  0.91621  1.0000
  H   H59       1.0  0.60939  0.14735  0.86784  1.0000
  O  Te17      1.0  0.54449  0.22839  0.90363  1.0000
  O  Te18      1.0  0.59628  0.25237  0.96271  1.0000
  H   H60       1.0  0.65457  0.16824  0.91933  1.0000
  Mg  Mg9       1.0  0.53015  0.26528  0.94512  1.0000
  C   C133      1.0  0.57655  0.86654  0.95208  1.0000
  C   C134      1.0  0.60382  0.83727  0.95338  1.0000
  C  Sn19      1.0  0.60459  0.80665  0.92689  1.0000
  C  Sn20      1.0  0.57753  0.80543  0.89861  1.0000
  C   C135      1.0  0.55037  0.83494  0.89755  1.0000
  C   C136      1.0  0.54985  0.86540  0.92419  1.0000
  H   H61       1.0  0.57615  0.89018  0.97269  1.0000
  O  Te19      1.0  0.63202  0.77760  0.92860  1.0000
  O  Te20      1.0  0.57766  0.77521  0.87180  1.0000
  H   H62       1.0  0.52874  0.88815  0.92318  1.0000
  Mg  Mg10      1.0  0.62064  0.74238  0.88580  1.0000
  C   C137      1.0  0.74165  0.17790  0.96166  1.0000
  C   C138      1.0  0.73560  0.15588  0.98560  1.0000
  C  Sn21      1.0  0.26382  0.86521  0.01408  1.0000
  C  Sn22      1.0  0.29398  0.86254  0.01862  1.0000
  C   C139      1.0  0.79516  0.15070  0.99453  1.0000
  C   C140      1.0  0.77140  0.17534  0.96611  1.0000
  H   H63       1.0  0.72327  0.19704  0.93968  1.0000
  O  Te21      1.0  0.25737  0.84337  0.03775  1.0000
  O  Te22      1.0  0.31798  0.83807  0.04685  1.0000
  H   H64       1.0  0.77609  0.19247  0.94759  1.0000
  Mg  Mg11      1.0  0.29774  0.81413  0.07206  1.0000
  C   C141      1.0  0.73649  0.77730  0.96324  1.0000
  C   C142      1.0  0.76434  0.74192  0.98616  1.0000
  C  Sn23      1.0  0.27233  0.44746  0.01454  1.0000
  C  Sn24      1.0  0.24730  0.45452  0.02001  1.0000
  C   C143      1.0  0.71489  0.75582  0.99693  1.0000
  C   C144      1.0  0.71178  0.78423  0.96861  1.0000
  H   H65       1.0  0.73407  0.79920  0.94133  1.0000
  O  Te23      1.0  0.30032  0.41232  0.03719  1.0000
  O  Te24      1.0  0.25003  0.42644  0.04817  1.0000
  H   H66       1.0  0.69021  0.81153  0.95087  1.0000
  Mg  Mg12      1.0  0.29279  0.38317  0.07181  1.0000
  C   C145      1.0  0.90284  0.22977  0.02929  1.0000
  C   C146      1.0  0.90516  0.13802  0.00953  1.0000
  C  Sn25      1.0  0.37404  0.33751  0.98484  1.0000
  C  Sn26      1.0  0.34473  0.36366  0.97990  1.0000
  C   C147      1.0  0.34265  0.45571  0.99979  1.0000
  C   C148      1.0  0.87393  0.25567  0.02442  1.0000
  H   H67       1.0  0.92345  0.28080  0.04834  1.0000
  O  Te25      1.0  0.39843  0.24611  0.96532  1.0000
  O  Te26      1.0  0.31790  0.29872  0.95540  1.0000
  H   H68       1.0  0.87213  0.32677  0.03971  1.0000
  Mg  Mg13      1.0  0.35517  0.18273  0.93513  1.0000
  C   C149      1.0  0.89995  0.87083  0.04101  1.0000
  C   C150      1.0  0.90719  0.83072  0.01904  1.0000
  C  Sn27      1.0  0.38066  0.01517  0.99342  1.0000
  C  Sn28      1.0  0.35097  0.97327  0.98979  1.0000
  C   C151      1.0  0.84859  0.74811  0.01189  1.0000
  C   C152      1.0  0.87068  0.82960  0.03745  1.0000
  H   H69       1.0  0.91704  0.93394  0.06078  1.0000
  O  Te27      1.0  0.38828  0.97597  0.97169  1.0000
  O  Te28      1.0  0.32865  0.89188  0.96440  1.0000
  H   H70       1.0  0.86506  0.86071  0.05444  1.0000
  Mg  Mg14      1.0  0.35003  0.86475  0.94103  1.0000
  C   C153      1.0  0.44573  0.63966  0.80797  1.0000
  C   C154      1.0  0.43489  0.67547  0.77811  1.0000
  C  Sn29      1.0  0.45108  0.78268  0.77111  1.0000
  C  Sn30      1.0  0.47864  0.85518  0.79448  1.0000
  C   C155      1.0  0.48931  0.81851  0.82427  1.0000
  C   C156      1.0  0.47292  0.71108  0.83103  1.0000
  H   H71       1.0  0.43306  0.55650  0.81320  1.0000
  O  Te29      1.0  0.43992  0.81715  0.74116  1.0000
  O  Te30      1.0  0.49529  0.96273  0.78811  1.0000
  H   H72       1.0  0.48133  0.68333  0.85415  1.0000
  Mg  Mg15      1.0  0.47075  0.97140  0.74381  1.0000
  C   C157      1.0  0.44035  0.25092  0.78654  1.0000
  C   C158      1.0  0.43722  0.35963  0.76746  1.0000
  C  Sn31      1.0  0.46316  0.43334  0.76812  1.0000
  C  Sn32      1.0  0.49274  0.39728  0.78826  1.0000
  C   C159      1.0  0.49562  0.28830  0.80724  1.0000
  C   C160      1.0  0.46951  0.21526  0.80640  1.0000
  H   H73       1.0  0.44181  0.19435  0.78588  1.0000
  O  Te31      1.0  0.45962  0.54169  0.74892  1.0000
  O  Te32      1.0  0.51904  0.46920  0.78938  1.0000
  H   H74       1.0  0.49360  0.13104  0.82116  1.0000
  Mg  Mg16      1.0  0.50239  0.60883  0.75878  1.0000
  C   C161      1.0  0.36846  0.15328  0.43102  1.0000
  C   C162      1.0  0.34239  0.15246  0.40272  1.0000
  C  Sn33      1.0  0.31428  0.17449  0.40042  1.0000
  C  Sn34      1.0  0.31232  0.19779  0.42697  1.0000
  C   C163      1.0  0.33854  0.19850  0.45518  1.0000
  C   C164      1.0  0.36654  0.17630  0.45723  1.0000
  H   H75       1.0  0.39013  0.13617  0.43261  1.0000
  O  Te33      1.0  0.28846  0.17329  0.37196  1.0000
  O  Te34      1.0  0.28452  0.22014  0.42532  1.0000
  H   H76       1.0  0.38672  0.17703  0.47915  1.0000
  Mg  Mg17      1.0  0.25574  0.20881  0.38137  1.0000
  C   C165      1.0  0.37261  0.77415  0.44228  1.0000
  C   C166      1.0  0.35077  0.80716  0.45003  1.0000
  C  Sn35      1.0  0.32170  0.83250  0.42763  1.0000
  C  Sn36      1.0  0.31442  0.82455  0.39692  1.0000
  C   C167      1.0  0.33643  0.79135  0.38939  1.0000
  C   C168      1.0  0.36545  0.76623  0.41199  1.0000
  H   H77       1.0  0.39506  0.75463  0.45976  1.0000
  O  Te35      1.0  0.30015  0.86540  0.43577  1.0000
  O  Te36      1.0  0.28554  0.84934  0.37407  1.0000
  H   H78       1.0  0.38236  0.74058  0.40597  1.0000
  Mg  Mg18      1.0  0.26393  0.89049  0.39649  1.0000
  C   C169      1.0  0.26415  0.23830  0.23888  1.0000
  C   C170      1.0  0.23357  0.21608  0.23260  1.0000
  C  Sn37      1.0  0.22654  0.18307  0.25556  1.0000
  C  Sn38      1.0  0.25062  0.17222  0.28532  1.0000
  C   C171      1.0  0.28114  0.19475  0.29137  1.0000
  C   C172      1.0  0.28792  0.22768  0.26823  1.0000
  H   H79       1.0  0.26939  0.26386  0.22098  1.0000
  O  Te37      1.0  0.19586  0.16114  0.24890  1.0000
  O  Te38      1.0  0.24425  0.13942  0.30869  1.0000
  H   H80       1.0  0.31160  0.24497  0.27309  1.0000
  Mg  Mg19      1.0  0.19881  0.11886  0.28837  1.0000
  C   C173      1.0  0.27529  0.85751  0.24894  1.0000
  C   C174      1.0  0.28072  0.81746  0.27742  1.0000
  C  Sn39      1.0  0.25623  0.76528  0.28199  1.0000
  C  Sn40      1.0  0.22577  0.75305  0.25754  1.0000
  C   C175      1.0  0.22058  0.79330  0.22912  1.0000
  C   C176      1.0  0.24526  0.84543  0.22481  1.0000
  H   H81       1.0  0.29438  0.89777  0.24559  1.0000
  O  Te39      1.0  0.26205  0.72580  0.31060  1.0000
  O  Te40      1.0  0.20087  0.70118  0.26147  1.0000
  H   H82       1.0  0.24105  0.87634  0.20274  1.0000
  Mg  Mg20      1.0  0.22052  0.66115  0.30470  1.0000
  C   C177      1.0  0.13137  0.18094  0.15503  1.0000
  C   C178      1.0  0.15933  0.24146  0.15783  1.0000
  C  Sn41      1.0  0.16143  0.27924  0.13224  1.0000
  C  Sn42      1.0  0.13501  0.25589  0.10333  1.0000
  C   C179      1.0  0.10714  0.19537  0.10077  1.0000
  C   C180      1.0  0.10529  0.15793  0.12653  1.0000
  H   H83       1.0  0.12993  0.15203  0.17496  1.0000
  O  Te41      1.0  0.18955  0.33954  0.13544  1.0000
  O  Te42      1.0  0.13646  0.29270  0.07738  1.0000
  H   H84       1.0  0.08364  0.11115  0.12435  1.0000
  Mg  Mg21      1.0  0.17996  0.37178  0.09336  1.0000
  C   C181      1.0  0.14389  0.90079  0.10406  1.0000
  C   C182      1.0  0.11371  0.88027  0.09902  1.0000
  C  Sn43      1.0  0.10748  0.82880  0.12149  1.0000
  C  Sn44      1.0  0.13196  0.79742  0.14951  1.0000
  C   C183      1.0  0.16208  0.81841  0.15435  1.0000
  C   C184      1.0  0.16806  0.86992  0.13170  1.0000
  H   H85       1.0  0.14853  0.94071  0.08655  1.0000
  O  Te43      1.0  0.07719  0.80887  0.11606  1.0000
  O  Te44      1.0  0.12638  0.74591  0.17236  1.0000
  H   H86       1.0  0.19143  0.88588  0.13562  1.0000
  Mg  Mg22      1.0  0.08122  0.73639  0.15421  1.0000
  C   C185      1.0  0.35392  0.73970  0.56194  1.0000
  C   C186      1.0  0.33172  0.65750  0.56620  1.0000
  C  Sn45      1.0  0.30474  0.59543  0.54141  1.0000
  C  Sn46      1.0  0.29997  0.61619  0.51182  1.0000
  C   C187      1.0  0.32233  0.69852  0.50779  1.0000
  C   C188      1.0  0.34923  0.76018  0.53276  1.0000
  H   H87       1.0  0.37475  0.78735  0.58126  1.0000
  O  Te45      1.0  0.28280  0.51366  0.54607  1.0000
  O  Te46      1.0  0.27322  0.55533  0.48664  1.0000
  H   H88       1.0  0.36643  0.82375  0.52945  1.0000
  Mg  Mg23      1.0  0.25008  0.45274  0.50459  1.0000
  C   C189      1.0  0.30295  0.15023  0.53377  1.0000
  C   C190      1.0  0.32197  0.18171  0.52100  1.0000
  C  Sn47      1.0  0.34704  0.28560  0.53455  1.0000
  C  Sn48      1.0  0.35313  0.35915  0.56139  1.0000
  C   C191      1.0  0.33398  0.32682  0.57400  1.0000
  C   C192      1.0  0.30895  0.22269  0.56025  1.0000
  H   H89       1.0  0.30525  0.06962  0.52314  1.0000
  O  Te47      1.0  0.36579  0.31576  0.52148  1.0000
  O  Te48      1.0  0.37803  0.46345  0.57541  1.0000
  H   H90       1.0  0.29425  0.19828  0.57016  1.0000
  Mg  Mg24      1.0  0.39695  0.46673  0.54899  1.0000
  C   C193      1.0  0.64571  0.87793  0.08317  1.0000
  C   C194      1.0  0.67156  0.86541  0.11101  1.0000
  C  Sn49      1.0  0.69995  0.85562  0.11272  1.0000
  C  Sn50      1.0  0.70242  0.85849  0.08602  1.0000
  C   C195      1.0  0.67643  0.87115  0.05828  1.0000
  C   C196      1.0  0.64814  0.88082  0.05683  1.0000
  H   H91       1.0  0.62383  0.88550  0.08204  1.0000
  O  Te49      1.0  0.72554  0.84311  0.14071  1.0000
  O  Te50      1.0  0.73051  0.84894  0.08709  1.0000
  H   H92       1.0  0.62814  0.89061  0.03527  1.0000
  Mg  Mg25      1.0  0.75881  0.83334  0.13056  1.0000
  C   C197      1.0  0.68572  0.19672  0.08335  1.0000
  C   C198      1.0  0.66292  0.19307  0.05315  1.0000
  C  Sn51      1.0  0.63301  0.21397  0.04571  1.0000
  C  Sn52      1.0  0.62586  0.23900  0.06898  1.0000
  C   C199      1.0  0.64884  0.24256  0.09912  1.0000
  C   C200      1.0  0.67869  0.22147  0.10632  1.0000
  H   H93       1.0  0.70882  0.18048  0.08892  1.0000
  O  Te51      1.0  0.61051  0.20992  0.01543  1.0000
  O  Te52      1.0  0.59616  0.26028  0.06218  1.0000
  H   H94       1.0  0.69634  0.22440  0.12970  1.0000
  Mg  Mg26      1.0  0.57339  0.24495  0.01754  1.0000
  C   C201      1.0  0.63748  0.34572  0.17785  1.0000
  C   C202      1.0  0.65444  0.24986  0.17417  1.0000
  C  Sn53      1.0  0.67595  0.18748  0.19914  1.0000
  C  Sn54      1.0  0.68052  0.22190  0.22830  1.0000
  C   C203      1.0  0.66342  0.31785  0.23174  1.0000
  C   C204      1.0  0.64196  0.37969  0.20661  1.0000
  H   H95       1.0  0.62086  0.39351  0.15840  1.0000
  O  Te53      1.0  0.69271  0.09196  0.19506  1.0000
  O  Te54      1.0  0.70187  0.16107  0.25364  1.0000
  H   H96       1.0  0.62882  0.45384  0.20946  1.0000
  Mg  Mg27      1.0  0.74080  0.03688  0.23654  1.0000
  C   C205      1.0  0.71057  0.57795  0.22638  1.0000
  C   C206      1.0  0.69217  0.62094  0.23768  1.0000
  C  Sn55      1.0  0.67378  0.72618  0.22422  1.0000
  C  Sn56      1.0  0.67386  0.78934  0.19898  1.0000
  C   C207      1.0  0.69233  0.74552  0.18783  1.0000
  C   C208      1.0  0.71065  0.64015  0.20148  1.0000
  H   H97       1.0  0.72473  0.49637  0.23693  1.0000
  O  Te55      1.0  0.65554  0.76792  0.23580  1.0000
  O  Te56      1.0  0.65570  0.89472  0.18509  1.0000
  H   H98       1.0  0.72488  0.60683  0.19271  1.0000
  Mg  Mg28      1.0  0.63476  0.91570  0.20912  1.0000
  C   C209      1.0  0.90054  0.81751  0.58236  1.0000
  C   C210      1.0  0.89946  0.82098  0.55433  1.0000
  C  Sn57      1.0  0.92649  0.82663  0.55251  1.0000
  C  Sn58      1.0  0.95510  0.82880  0.57930  1.0000
  C   C211      1.0  0.95594  0.82520  0.60724  1.0000
  C   C212      1.0  0.92875  0.81960  0.60879  1.0000
  H   H99       1.0  0.87951  0.81310  0.58356  1.0000
  O  Te57      1.0  0.92500  0.83008  0.52433  1.0000
  O  Te58      1.0  0.98247  0.83438  0.57814  1.0000
  H   H100      1.0  0.92960  0.81682  0.63050  1.0000
  Mg  Mg29      1.0  0.96857  0.83745  0.53440  1.0000
  C   C213      1.0  0.87612  0.17390  0.58625  1.0000
  C   C214      1.0  0.87124  0.18267  0.55678  1.0000
  C  Sn59      1.0  0.89572  0.18125  0.55091  1.0000
  C  Sn60      1.0  0.92561  0.17081  0.57504  1.0000
  C   C215      1.0  0.93025  0.16199  0.60444  1.0000
  C   C216      1.0  0.90559  0.16355  0.61006  1.0000
  H   H101      1.0  0.85704  0.17503  0.59059  1.0000
  O  Te59      1.0  0.89044  0.19014  0.52134  1.0000
  O  Te60      1.0  0.95048  0.16911  0.56981  1.0000
  H   H102      1.0  0.93103  0.15667  0.63287  1.0000
  Mg  Mg30      1.0  0.93170  0.18379  0.52562  1.0000
  C   C217      1.0  0.76466  0.45005  0.47294  1.0000
  C   C218      1.0  0.75727  0.41111  0.44347  1.0000
  C  Sn61      1.0  0.77059  0.30319  0.43805  1.0000
  C  Sn62      1.0  0.79169  0.23312  0.46263  1.0000
  C   C219      1.0  0.79891  0.27279  0.49202  1.0000
  C   C220      1.0  0.78545  0.38095  0.49719  1.0000
  H   H103      1.0  0.75423  0.53369  0.47694  1.0000
  O  Te61      1.0  0.76296  0.26565  0.40847  1.0000
  O  Te62      1.0  0.80533  0.12486  0.45785  1.0000
  H   H104      1.0  0.79116  0.41101  0.52000  1.0000
  Mg  Mg31      1.0  0.78760  0.11167  0.41346  1.0000
  C   C221      1.0  0.80682  0.63953  0.44236  1.0000
  C   C222      1.0  0.77679  0.66901  0.43193  1.0000
  C  Sn63      1.0  0.77104  0.77685  0.44594  1.0000
  C  Sn64      1.0  0.79587  0.85648  0.47085  1.0000
  C   C223      1.0  0.82583  0.82623  0.48110  1.0000
  C   C224      1.0  0.83132  0.71806  0.46692  1.0000
  H   H105      1.0  0.81107  0.55589  0.43138  1.0000
  O  Te63      1.0  0.74089  0.80488  0.43524  1.0000
  O  Te64      1.0  0.79078  0.96488  0.48526  1.0000
  H   H106      1.0  0.85458  0.69532  0.47499  1.0000
  Mg  Mg32      1.0  0.74563  0.96309  0.46238  1.0000
  C   C225      1.0  0.42719  0.80920  0.36392  1.0000
  C   C226      1.0  0.39716  0.79111  0.33984  1.0000
  C  Sn65      1.0  0.39138  0.74705  0.31117  1.0000
  C  Sn66      1.0  0.41616  0.72067  0.30660  1.0000
  C   C227      1.0  0.44611  0.73898  0.33085  1.0000
  C   C228      1.0  0.45164  0.78315  0.35944  1.0000
  H   H107      1.0  0.43146  0.84330  0.38605  1.0000
  O  Te65      1.0  0.36125  0.72955  0.28736  1.0000
  O  Te66      1.0  0.41103  0.67649  0.27819  1.0000
  H   H108      1.0  0.47488  0.79706  0.37808  1.0000
  Mg  Mg33      1.0  0.36592  0.66769  0.25282  1.0000
  C   C229      1.0  0.42515  0.17077  0.37120  1.0000
  C   C230      1.0  0.39518  0.14899  0.34706  1.0000
  C  Sn67      1.0  0.38982  0.10813  0.31836  1.0000
  C  Sn68      1.0  0.41497  0.08877  0.31382  1.0000
  C   C231      1.0  0.44486  0.11073  0.33812  1.0000
  C   C232      1.0  0.44997  0.15164  0.36674  1.0000
  H   H109      1.0  0.42910  0.20236  0.39334  1.0000
  O  Te67      1.0  0.35974  0.08687  0.29449  1.0000
  O  Te68      1.0  0.43193  0.04791  0.28537  1.0000
  H   H110      1.0  0.47317  0.16841  0.38543  1.0000
  Mg  Mg34      1.0  0.38671  0.03180  0.25993  1.0000
  C   C233      1.0  0.50684  0.32225  0.29028  1.0000
  C   C234      1.0  0.50256  0.23364  0.31008  1.0000
  C  Sn69      1.0  0.52783  0.20066  0.33655  1.0000
  C  Sn70      1.0  0.55791  0.25765  0.34326  1.0000
  C   C235      1.0  0.56195  0.34628  0.32332  1.0000
  C   C236      1.0  0.53650  0.37855  0.29690  1.0000
  H   H111      1.0  0.48716  0.34729  0.26985  1.0000
  O  Te69      1.0  0.52314  0.11191  0.35607  1.0000
  O  Te70      1.0  0.58356  0.22646  0.36956  1.0000
  H   H112      1.0  0.53982  0.44723  0.28158  1.0000
  Mg  Mg35      1.0  0.58703  0.10038  0.38909  1.0000
  C   C237      1.0  0.54987  0.61694  0.34779  1.0000
  C   C238      1.0  0.56172  0.63057  0.32789  1.0000
  C  Sn71      1.0  0.54781  0.70709  0.30232  1.0000
  C  Sn72      1.0  0.52157  0.77106  0.29665  1.0000
  C   C239      1.0  0.50990  0.75689  0.31671  1.0000
  C   C240      1.0  0.52399  0.68005  0.34222  1.0000
  H   H113      1.0  0.56077  0.55755  0.36754  1.0000
  O  Te71      1.0  0.55994  0.71962  0.28266  1.0000
  O  Te72      1.0  0.50723  0.84818  0.27127  1.0000
  H   H114      1.0  0.51482  0.66959  0.35764  1.0000
  Mg  Mg36      1.0  0.53232  0.83527  0.25114  1.0000
