data_image0
_chemical_formula_structural       H114C204N36C2Sn2C2HTe2HMgC2Sn2C2HTe2HMgC2Sn2C2HTe2HMgC2Sn2C2HTe2HMgC2Sn2C2HTe2HMgC2Sn2C2HTe2HMgC2Sn2C2HTe2HMgC2Sn2C2HTe2HMgC2Sn2C2HTe2HMgC2Sn2C2HTe2HMgC2Sn2C2HTe2HMgC2Sn2C2HTe2HMgC2Sn2C2HTe2HMgC2Sn2C2HTe2HMgC2Sn2C2HTe2HMgC2Sn2C2HTe2HMgC2Sn2C2HTe2HMgC2Sn2C2HTe2HMg
_chemical_formula_sum              "H150 C276 N36 Sn36 Te36 Mg18"
_cell_length_a       50.1353
_cell_length_b       9.68969
_cell_length_c       50.7474
_cell_angle_alpha    89.7673
_cell_angle_beta     118.927
_cell_angle_gamma    96.4334

_symmetry_space_group_name_H-M    'P1'
_space_group_IT_number       1

loop_
  _space_group_symop_operation_xyz
  'x, y, z'

loop_
  _atom_site_type_symbol
  _atom_site_label
  _atom_site_symmetry_multiplicity
  _atom_site_fract_x
  _atom_site_fract_y
  _atom_site_fract_z
  _atom_site_occupancy
  H   H1        1.0  0.08689  0.87259  0.71622  1.0000
  H   H2        1.0  0.04380  0.84299  0.61983  1.0000
  H   H3        1.0  0.09551  0.84310  0.62292  1.0000
  H   H4        1.0  0.13845  0.87180  0.71968  1.0000
  H   H5        1.0  0.04630  0.81545  0.74459  1.0000
  H   H6        1.0  0.94634  0.86046  0.73957  1.0000
  H   H7        1.0  0.96649  0.22755  0.88453  1.0000
  H   H8        1.0  0.96655  0.29471  0.83697  1.0000
  H   H9        1.0  0.72380  0.78144  0.38069  1.0000
  H   H10       1.0  0.70846  0.26689  0.38477  1.0000
  H   H11       1.0  0.22908  0.75936  0.64683  1.0000
  H   H12       1.0  0.20132  0.43645  0.63195  1.0000
  H   H13       1.0  0.18858  0.85947  0.65324  1.0000
  H   H14       1.0  0.15135  0.33694  0.62825  1.0000
  H   H15       1.0  0.20648  0.60406  0.72808  1.0000
  H   H16       1.0  0.19938  0.08795  0.70297  1.0000
  H   H17       1.0  0.24667  0.50470  0.72167  1.0000
  H   H18       1.0  0.24930  0.18758  0.70706  1.0000
  H   H19       1.0  0.16261  0.71717  0.70833  1.0000
  H   H20       1.0  0.14502  0.10522  0.68512  1.0000
  H   H21       1.0  0.62527  0.79096  0.92002  1.0000
  H   H22       1.0  0.58859  0.88160  0.97783  1.0000
  H   H23       1.0  0.53595  0.87084  0.93302  1.0000
  H   H24       1.0  0.57280  0.78120  0.87498  1.0000
  H   H25       1.0  0.69477  0.19033  0.94578  1.0000
  H   H26       1.0  0.78955  0.10753  0.03896  1.0000
  H   H27       1.0  0.68152  0.75042  0.28295  1.0000
  H   H28       1.0  0.66185  0.23379  0.27878  1.0000
  H   H29       1.0  0.53140  0.93311  0.84827  1.0000
  H   H30       1.0  0.54227  0.32054  0.83643  1.0000
  H   H31       1.0  0.28846  0.20034  0.37914  1.0000
  H   H32       1.0  0.29335  0.84410  0.37561  1.0000
  H   H33       1.0  0.38289  0.13223  0.41991  1.0000
  H   H34       1.0  0.38693  0.76188  0.41632  1.0000
  H   H35       1.0  0.38745  0.15061  0.47123  1.0000
  H   H36       1.0  0.39014  0.76660  0.46708  1.0000
  H   H37       1.0  0.29241  0.21508  0.43036  1.0000
  H   H38       1.0  0.29614  0.84796  0.42592  1.0000
  H   H39       1.0  0.25084  0.14271  0.30710  1.0000
  H   H40       1.0  0.25335  0.71790  0.30377  1.0000
  H   H41       1.0  0.25705  0.25737  0.21433  1.0000
  H   H42       1.0  0.25129  0.90230  0.21144  1.0000
  H   H43       1.0  0.61772  0.76061  0.32518  1.0000
  H   H44       1.0  0.60897  0.24373  0.32589  1.0000
  H   H45       1.0  0.36962  0.75923  0.58730  1.0000
  H   H46       1.0  0.37105  0.44675  0.57564  1.0000
  H   H47       1.0  0.36766  0.83405  0.53952  1.0000
  H   H48       1.0  0.36963  0.33052  0.53115  1.0000
  H   H49       1.0  0.28077  0.57865  0.48902  1.0000
  H   H50       1.0  0.28786  0.06657  0.51505  1.0000
  H   H51       1.0  0.28283  0.50399  0.53649  1.0000
  H   H52       1.0  0.28874  0.18413  0.55904  1.0000
  H   H53       1.0  0.30244  0.68392  0.46206  1.0000
  H   H54       1.0  0.30565  0.06781  0.47692  1.0000
  H   H55       1.0  0.74075  0.12070  0.04018  1.0000
  H   H56       1.0  0.74337  0.17479  0.94408  1.0000
  H   H57       1.0  0.38513  0.25762  0.71770  1.0000
  H   H58       1.0  0.38779  0.77235  0.72187  1.0000
  H   H59       1.0  0.62979  0.45910  0.20007  1.0000
  H   H60       1.0  0.62503  0.36058  0.15247  1.0000
  H   H61       1.0  0.69187  0.08802  0.20394  1.0000
  H   H62       1.0  0.69685  0.18740  0.25139  1.0000
  H   H63       1.0  0.67318  0.09432  0.14953  1.0000
  H   H64       1.0  0.71137  0.71360  0.15891  1.0000
  H   H65       1.0  0.90043  0.17561  0.62634  1.0000
  H   H66       1.0  0.94845  0.16720  0.57601  1.0000
  H   H67       1.0  0.89871  0.16437  0.52769  1.0000
  H   H68       1.0  0.85071  0.17613  0.57840  1.0000
  H   H69       1.0  0.95076  0.86232  0.69242  1.0000
  H   H70       1.0  0.04212  0.81089  0.79155  1.0000
  H   H71       1.0  0.05655  0.10329  0.91868  1.0000
  H   H72       1.0  0.05755  0.17946  0.87236  1.0000
  H   H73       1.0  0.27823  0.22322  0.67148  1.0000
  H   H74       1.0  0.28854  0.74044  0.67820  1.0000
  H   H75       1.0  0.79845  0.55085  0.42439  1.0000
  H   H76       1.0  0.84685  0.65445  0.46951  1.0000
  H   H77       1.0  0.79678  0.94361  0.48570  1.0000
  H   H78       1.0  0.74839  0.84109  0.44063  1.0000
  H   H79       1.0  0.83027  0.33376  0.53990  1.0000
  H   H80       1.0  0.84962  0.92686  0.52369  1.0000
  H   H81       1.0  0.36782  0.70763  0.28625  1.0000
  H   H82       1.0  0.36649  0.06812  0.29328  1.0000
  H   H83       1.0  0.41864  0.84179  0.37989  1.0000
  H   H84       1.0  0.41606  0.19709  0.38719  1.0000
  H   H85       1.0  0.46801  0.82394  0.37957  1.0000
  H   H86       1.0  0.46607  0.19169  0.38699  1.0000
  H   H87       1.0  0.41694  0.68685  0.28578  1.0000
  H   H88       1.0  0.41593  0.05700  0.29301  1.0000
  H   H89       1.0  0.30098  0.89095  0.25798  1.0000
  H   H90       1.0  0.30437  0.22872  0.26258  1.0000
  H   H91       1.0  0.20301  0.71987  0.25624  1.0000
  H   H92       1.0  0.20263  0.16525  0.25818  1.0000
  H   H93       1.0  0.32837  0.22912  0.61853  1.0000
  H   H94       1.0  0.33341  0.74505  0.61764  1.0000
  H   H95       1.0  0.45413  0.22255  0.29831  1.0000
  H   H96       1.0  0.46631  0.82304  0.29395  1.0000
  H   H97       1.0  0.03360  0.26075  0.82331  1.0000
  H   H98       1.0  0.02289  0.70879  0.81988  1.0000
  H   H99       1.0  0.82703  0.26231  0.02678  1.0000
  H   H100      1.0  0.82402  0.79702  0.03454  1.0000
  H   H101      1.0  0.21396  0.34849  0.18267  1.0000
  H   H102      1.0  0.21058  0.80427  0.17383  1.0000
  H   H103      1.0  0.66257  0.25871  0.33058  1.0000
  H   H104      1.0  0.67214  0.75545  0.32905  1.0000
  H   H105      1.0  0.33637  0.74278  0.67087  1.0000
  H   H106      1.0  0.33055  0.24626  0.67044  1.0000
  H   H107      1.0  0.00139  0.74652  0.94876  1.0000
  H   H108      1.0  0.01147  0.26432  0.95453  1.0000
  H   H109      1.0  0.95178  0.73038  0.00489  1.0000
  H   H110      1.0  0.95649  0.24669  0.00361  1.0000
  H   H111      1.0  0.05388  0.75663  0.05154  1.0000
  H   H112      1.0  0.06181  0.27381  0.05490  1.0000
  H   H113      1.0  0.00192  0.75423  0.00093  1.0000
  H   H114      1.0  0.00964  0.25117  0.00477  1.0000
  C   C1        1.0  0.58679  0.42518  0.32340  1.0000
  C   C2        1.0  0.58918  0.57238  0.32323  1.0000
  C   C3        1.0  0.00915  0.18604  0.65644  1.0000
  C   C4        1.0  0.03182  0.84830  0.66571  1.0000
  C   C5        1.0  0.08914  0.86327  0.69605  1.0000
  C   C6        1.0  0.06228  0.85287  0.66786  1.0000
  C   C7        1.0  0.06470  0.84730  0.64143  1.0000
  C   C8        1.0  0.09316  0.84750  0.64312  1.0000
  C   C9        1.0  0.11985  0.84967  0.67131  1.0000
  C   C10       1.0  0.11766  0.86202  0.69787  1.0000
  C   C11       1.0  0.02439  0.82226  0.74371  1.0000
  C   C12       1.0  0.96792  0.84694  0.74029  1.0000
  C   C13       1.0  0.98654  0.21841  0.88189  1.0000
  C   C14       1.0  0.98640  0.25563  0.85528  1.0000
  C   C15       1.0  0.69211  0.44383  0.35850  1.0000
  C   C16       1.0  0.69525  0.58951  0.35806  1.0000
  C   C17       1.0  0.72006  0.66923  0.38167  1.0000
  C   C18       1.0  0.71202  0.37909  0.38373  1.0000
  C   C19       1.0  0.23994  0.62217  0.68324  1.0000
  C   C20       1.0  0.22884  0.32364  0.67056  1.0000
  C   C21       1.0  0.22438  0.72741  0.66492  1.0000
  C   C22       1.0  0.20077  0.36040  0.64751  1.0000
  C   C23       1.0  0.20173  0.78302  0.66829  1.0000
  C   C24       1.0  0.17300  0.30547  0.64529  1.0000
  C   C25       1.0  0.19421  0.73463  0.69038  1.0000
  C   C26       1.0  0.17228  0.21105  0.66615  1.0000
  C   C27       1.0  0.21157  0.63829  0.71036  1.0000
  C   C28       1.0  0.19993  0.16502  0.68753  1.0000
  C   C29       1.0  0.23408  0.58269  0.70682  1.0000
  C   C30       1.0  0.22794  0.22008  0.68965  1.0000
  C   C31       1.0  0.16694  0.76728  0.69105  1.0000
  C   C32       1.0  0.14371  0.17078  0.66693  1.0000
  C   C33       1.0  0.73631  0.45864  0.40854  1.0000
  C   C34       1.0  0.74137  0.60459  0.40668  1.0000
  C   C35       1.0  0.63421  0.18843  0.96692  1.0000
  C   C36       1.0  0.64038  0.83383  0.97807  1.0000
  C   C37       1.0  0.60557  0.81002  0.92239  1.0000
  C   C38       1.0  0.61000  0.83648  0.95153  1.0000
  C   C39       1.0  0.58474  0.86019  0.95517  1.0000
  C   C40       1.0  0.55565  0.85467  0.93040  1.0000
  C   C41       1.0  0.55113  0.82828  0.90112  1.0000
  C   C42       1.0  0.57655  0.80635  0.89746  1.0000
  C   C43       1.0  0.71573  0.17316  0.96602  1.0000
  C   C44       1.0  0.76905  0.12925  0.01867  1.0000
  C   C45       1.0  0.66819  0.42582  0.30351  1.0000
  C   C46       1.0  0.67174  0.57165  0.30368  1.0000
  C   C47       1.0  0.67687  0.63770  0.28196  1.0000
  C   C48       1.0  0.66664  0.34650  0.27991  1.0000
  C   C49       1.0  0.51494  0.85862  0.85114  1.0000
  C   C50       1.0  0.52099  0.27107  0.83554  1.0000
  C   C51       1.0  0.66989  0.41207  0.25665  1.0000
  C   C52       1.0  0.67689  0.55885  0.25881  1.0000
  C   C53       1.0  0.33419  0.16121  0.36703  1.0000
  C   C54       1.0  0.33776  0.79453  0.36262  1.0000
  C   C55       1.0  0.30976  0.18736  0.39946  1.0000
  C   C56       1.0  0.31418  0.82405  0.39570  1.0000
  C   C57       1.0  0.33545  0.16560  0.39656  1.0000
  C   C58       1.0  0.33962  0.79866  0.39260  1.0000
  C   C59       1.0  0.36335  0.15023  0.42265  1.0000
  C   C60       1.0  0.36715  0.77933  0.41872  1.0000
  C   C61       1.0  0.36584  0.15938  0.45093  1.0000
  C   C62       1.0  0.36896  0.78217  0.44692  1.0000
  C   C63       1.0  0.34003  0.18008  0.45395  1.0000
  C   C64       1.0  0.34303  0.80093  0.44990  1.0000
  C   C65       1.0  0.31190  0.19357  0.42780  1.0000
  C   C66       1.0  0.31581  0.82529  0.42385  1.0000
  C   C67       1.0  0.25171  0.16911  0.28666  1.0000
  C   C68       1.0  0.25254  0.75466  0.28315  1.0000
  C   C69       1.0  0.25555  0.23434  0.23461  1.0000
  C   C70       1.0  0.25151  0.85540  0.23103  1.0000
  C   C71       1.0  0.63708  0.43249  0.32776  1.0000
  C   C72       1.0  0.63957  0.57804  0.32720  1.0000
  C   C73       1.0  0.61576  0.64765  0.32493  1.0000
  C   C74       1.0  0.61108  0.35672  0.32599  1.0000
  C   C75       1.0  0.32667  0.62351  0.56539  1.0000
  C   C76       1.0  0.32937  0.32663  0.56964  1.0000
  C   C77       1.0  0.34985  0.72145  0.56575  1.0000
  C   C78       1.0  0.35287  0.36362  0.56231  1.0000
  C   C79       1.0  0.34892  0.76329  0.53897  1.0000
  C   C80       1.0  0.35229  0.29915  0.53778  1.0000
  C   C81       1.0  0.32439  0.70977  0.51082  1.0000
  C   C82       1.0  0.32822  0.19477  0.51980  1.0000
  C   C83       1.0  0.30010  0.62027  0.51055  1.0000
  C   C84       1.0  0.30612  0.14964  0.52844  1.0000
  C   C85       1.0  0.30119  0.57799  0.53726  1.0000
  C   C86       1.0  0.30671  0.21508  0.55326  1.0000
  C   C87       1.0  0.32354  0.73249  0.48186  1.0000
  C   C88       1.0  0.32512  0.14606  0.49111  1.0000
  C   C89       1.0  0.32957  0.55601  0.59294  1.0000
  C   C90       1.0  0.32875  0.40922  0.59372  1.0000
  C   C91       1.0  0.67037  0.84195  0.02912  1.0000
  C   C92       1.0  0.65855  0.19092  0.01835  1.0000
  C   C93       1.0  0.74169  0.13543  0.01936  1.0000
  C   C94       1.0  0.74273  0.16505  0.96512  1.0000
  C   C95       1.0  0.36287  0.57834  0.69720  1.0000
  C   C96       1.0  0.36128  0.43273  0.69685  1.0000
  C   C97       1.0  0.38544  0.36988  0.71868  1.0000
  C   C98       1.0  0.38738  0.66013  0.72068  1.0000
  C   C99       1.0  0.66440  0.33374  0.22907  1.0000
  C   C100      1.0  0.64324  0.37752  0.20073  1.0000
  C   C101      1.0  0.64054  0.32331  0.17421  1.0000
  C   C102      1.0  0.65900  0.22196  0.17506  1.0000
  C   C103      1.0  0.67807  0.16901  0.20301  1.0000
  C   C104      1.0  0.68074  0.22406  0.22975  1.0000
  C   C105      1.0  0.66018  0.18122  0.14793  1.0000
  C   C106      1.0  0.69654  0.77246  0.16377  1.0000
  C   C107      1.0  0.41130  0.59758  0.74377  1.0000
  C   C108      1.0  0.41107  0.45145  0.74184  1.0000
  C   C109      1.0  0.97989  0.84039  0.63663  1.0000
  C   C110      1.0  0.95703  0.18189  0.63244  1.0000
  C   C111      1.0  0.89974  0.17609  0.60460  1.0000
  C   C112      1.0  0.92756  0.17621  0.60413  1.0000
  C   C113      1.0  0.92694  0.17070  0.57615  1.0000
  C   C114      1.0  0.89942  0.16924  0.54944  1.0000
  C   C115      1.0  0.87180  0.17811  0.54993  1.0000
  C   C116      1.0  0.87217  0.17728  0.57789  1.0000
  C   C117      1.0  0.97037  0.84826  0.71417  1.0000
  C   C118      1.0  0.02189  0.81872  0.76984  1.0000
  C   C119      1.0  0.03721  0.14877  0.90117  1.0000
  C   C120      1.0  0.03761  0.19045  0.87507  1.0000
  C   C121      1.0  0.30743  0.56018  0.67300  1.0000
  C   C122      1.0  0.30541  0.41441  0.67263  1.0000
  C   C123      1.0  0.28067  0.33621  0.67316  1.0000
  C   C124      1.0  0.28604  0.62755  0.67616  1.0000
  C   C125      1.0  0.76995  0.68491  0.43027  1.0000
  C   C126      1.0  0.79825  0.63718  0.43784  1.0000
  C   C127      1.0  0.82516  0.69431  0.46279  1.0000
  C   C128      1.0  0.82469  0.80187  0.48106  1.0000
  C   C129      1.0  0.79707  0.85792  0.47207  1.0000
  C   C130      1.0  0.76996  0.80088  0.44674  1.0000
  C   C131      1.0  0.82620  0.26983  0.52017  1.0000
  C   C132      1.0  0.85174  0.84593  0.51003  1.0000
  C   C133      1.0  0.26139  0.55017  0.67761  1.0000
  C   C134      1.0  0.25778  0.40281  0.67453  1.0000
  C   C135      1.0  0.36164  0.78422  0.33424  1.0000
  C   C136      1.0  0.35953  0.14636  0.34022  1.0000
  C   C137      1.0  0.38991  0.73434  0.30641  1.0000
  C   C138      1.0  0.38845  0.09756  0.31342  1.0000
  C   C139      1.0  0.39022  0.77585  0.33308  1.0000
  C   C140      1.0  0.38847  0.13754  0.33998  1.0000
  C   C141      1.0  0.41865  0.80871  0.35948  1.0000
  C   C142      1.0  0.41658  0.16884  0.36674  1.0000
  C   C143      1.0  0.44592  0.79927  0.35928  1.0000
  C   C144      1.0  0.44411  0.16507  0.36667  1.0000
  C   C145      1.0  0.44575  0.75783  0.33261  1.0000
  C   C146      1.0  0.44416  0.13127  0.33973  1.0000
  C   C147      1.0  0.41729  0.72512  0.30610  1.0000
  C   C148      1.0  0.41597  0.09283  0.31330  1.0000
  C   C149      1.0  0.27942  0.85115  0.25717  1.0000
  C   C150      1.0  0.28197  0.21810  0.26137  1.0000
  C   C151      1.0  0.22465  0.75595  0.25685  1.0000
  C   C152      1.0  0.22520  0.18214  0.25980  1.0000
  C   C153      1.0  0.33277  0.56378  0.64229  1.0000
  C   C154      1.0  0.33083  0.41815  0.64231  1.0000
  C   C155      1.0  0.32893  0.34161  0.61831  1.0000
  C   C156      1.0  0.33219  0.63232  0.61785  1.0000
  C   C157      1.0  0.47455  0.19134  0.31801  1.0000
  C   C158      1.0  0.48118  0.77053  0.31424  1.0000
  C   C159      1.0  0.93066  0.05524  0.00480  1.0000
  C   C160      1.0  0.93010  0.90840  0.00612  1.0000
  C   C161      1.0  0.08313  0.09518  0.07725  1.0000
  C   C162      1.0  0.08096  0.94779  0.07636  1.0000
  C   C163      1.0  0.00817  0.08104  0.92864  1.0000
  C   C164      1.0  0.00501  0.93338  0.92676  1.0000
  C   C165      1.0  0.98425  0.19882  0.68378  1.0000
  C   C166      1.0  0.00162  0.84142  0.68791  1.0000
  C   C167      1.0  0.99868  0.83631  0.71548  1.0000
  C   C168      1.0  0.99345  0.83010  0.76858  1.0000
  C   C169      1.0  0.01112  0.15649  0.90437  1.0000
  C   C170      1.0  0.01152  0.23657  0.85103  1.0000
  C   C171      1.0  0.01095  0.24968  0.82209  1.0000
  C   C172      1.0  0.00581  0.77548  0.81823  1.0000
  C   C173      1.0  0.68553  0.16973  0.99330  1.0000
  C   C174      1.0  0.69077  0.80228  0.99877  1.0000
  C   C175      1.0  0.71467  0.15901  0.99316  1.0000
  C   C176      1.0  0.77015  0.14581  0.99153  1.0000
  C   C177      1.0  0.82314  0.19548  0.00745  1.0000
  C   C178      1.0  0.82263  0.75211  0.01393  1.0000
  C   C179      1.0  0.30855  0.16872  0.31589  1.0000
  C   C180      1.0  0.31011  0.79539  0.31131  1.0000
  C   C181      1.0  0.28040  0.18599  0.28770  1.0000
  C   C182      1.0  0.28040  0.79988  0.28356  1.0000
  C   C183      1.0  0.22666  0.21678  0.23347  1.0000
  C   C184      1.0  0.22355  0.80386  0.23011  1.0000
  C   C185      1.0  0.19512  0.28402  0.18392  1.0000
  C   C186      1.0  0.19103  0.80661  0.17799  1.0000
  C   C187      1.0  0.66477  0.37214  0.33014  1.0000
  C   C188      1.0  0.67003  0.64199  0.32951  1.0000
  C   C189      1.0  0.33509  0.62935  0.67077  1.0000
  C   C190      1.0  0.33181  0.35977  0.67061  1.0000
  C   C191      1.0  0.00378  0.85954  0.95018  1.0000
  C   C192      1.0  0.00894  0.15127  0.95318  1.0000
  C   C193      1.0  0.95281  0.84298  0.00434  1.0000
  C   C194      1.0  0.95568  0.13417  0.00421  1.0000
  C   C195      1.0  0.05542  0.86947  0.05239  1.0000
  C   C196      1.0  0.06002  0.16096  0.05405  1.0000
  C   C197      1.0  0.00380  0.86791  0.00181  1.0000
  C   C198      1.0  0.00783  0.13748  0.00389  1.0000
  C   C199      1.0  0.97692  0.92252  0.00294  1.0000
  C   C200      1.0  0.97882  0.06823  0.00376  1.0000
  C   C201      1.0  0.03262  0.93635  0.02962  1.0000
  C   C202      1.0  0.03484  0.08208  0.03056  1.0000
  C   C203      1.0  0.00490  0.93084  0.97458  1.0000
  C   C204      1.0  0.00713  0.07661  0.97585  1.0000
  N   N1        1.0  0.95660  0.19283  0.65871  1.0000
  N   N2        1.0  0.97577  0.83970  0.66107  1.0000
  N   N3        1.0  0.14725  0.83846  0.67085  1.0000
  N   N4        1.0  0.11841  0.21473  0.64758  1.0000
  N   N5        1.0  0.68583  0.17569  0.02007  1.0000
  N   N6        1.0  0.69520  0.81695  0.02711  1.0000
  N   N7        1.0  0.52138  0.80961  0.87694  1.0000
  N   N8        1.0  0.52151  0.20716  0.85814  1.0000
  N   N9        1.0  0.33390  0.15406  0.31373  1.0000
  N   N10       1.0  0.33524  0.78906  0.30820  1.0000
  N   N11       1.0  0.34610  0.79475  0.47895  1.0000
  N   N12       1.0  0.34424  0.20067  0.48276  1.0000
  N   N13       1.0  0.66402  0.81119  0.97350  1.0000
  N   N14       1.0  0.66027  0.17476  0.96612  1.0000
  N   N15       1.0  0.64672  0.24704  0.12375  1.0000
  N   N16       1.0  0.67932  0.85554  0.14472  1.0000
  N   N17       1.0  0.03020  0.84646  0.69144  1.0000
  N   N18       1.0  0.01114  0.19540  0.68390  1.0000
  N   N19       1.0  0.84538  0.18648  0.52205  1.0000
  N   N20       1.0  0.87649  0.78831  0.51895  1.0000
  N   N21       1.0  0.31006  0.79761  0.33790  1.0000
  N   N22       1.0  0.30731  0.17139  0.34188  1.0000
  N   N23       1.0  0.47286  0.14197  0.34089  1.0000
  N   N24       1.0  0.47395  0.74021  0.33494  1.0000
  N   N25       1.0  0.98257  0.17784  0.63015  1.0000
  N   N26       1.0  0.00745  0.84443  0.63789  1.0000
  N   N27       1.0  0.98573  0.23847  0.79666  1.0000
  N   N28       1.0  0.98925  0.83601  0.79388  1.0000
  N   N29       1.0  0.63230  0.19833  0.99236  1.0000
  N   N30       1.0  0.64245  0.85095  0.00540  1.0000
  N   N31       1.0  0.79616  0.13567  0.98842  1.0000
  N   N32       1.0  0.79645  0.71282  0.99039  1.0000
  N   N33       1.0  0.36084  0.14932  0.36731  1.0000
  N   N34       1.0  0.36405  0.78741  0.36185  1.0000
  N   N35       1.0  0.19854  0.22078  0.20757  1.0000
  N   N36       1.0  0.19424  0.80285  0.20482  1.0000
  C   C205      1.0  0.15710  0.29364  0.11996  1.0000
  C   C206      1.0  0.16361  0.28871  0.14999  1.0000
  C  Sn1       1.0  0.14214  0.21970  0.15713  1.0000
  C  Sn2       1.0  0.11364  0.15448  0.13374  1.0000
  C   C207      1.0  0.10735  0.15991  0.10376  1.0000
  C   C208      1.0  0.12900  0.22928  0.09686  1.0000
  H   H115      1.0  0.17385  0.34724  0.11462  1.0000
  O  Te1       1.0  0.14901  0.21583  0.18726  1.0000
  O  Te2       1.0  0.09177  0.08475  0.14025  1.0000
  H   H116      1.0  0.12396  0.23300  0.07361  1.0000
  Mg  Mg1       1.0  0.11179  0.10812  0.18475  1.0000
  C   C209      1.0  0.90284  0.22977  0.02929  1.0000
  C   C210      1.0  0.90516  0.13802  0.00953  1.0000
  C  Sn3       1.0  0.37404  0.33751  0.98484  1.0000
  C  Sn4       1.0  0.34473  0.36366  0.97990  1.0000
  C   C211      1.0  0.34265  0.45571  0.99979  1.0000
  C   C212      1.0  0.87393  0.25567  0.02442  1.0000
  H   H117      1.0  0.92345  0.28080  0.04834  1.0000
  O  Te3       1.0  0.39843  0.24611  0.96532  1.0000
  O  Te4       1.0  0.31790  0.29872  0.95540  1.0000
  H   H118      1.0  0.87213  0.32677  0.03971  1.0000
  Mg  Mg2       1.0  0.35517  0.18273  0.93513  1.0000
  C   C213      1.0  0.45812  0.67890  0.82226  1.0000
  C   C214      1.0  0.48154  0.78142  0.82532  1.0000
  C  Sn5       1.0  0.48056  0.84171  0.79986  1.0000
  C  Sn6       1.0  0.45565  0.79837  0.77084  1.0000
  C   C215      1.0  0.43233  0.69579  0.76803  1.0000
  C   C216      1.0  0.43354  0.63613  0.79365  1.0000
  H   H119      1.0  0.45905  0.63278  0.84209  1.0000
  O  Te5       1.0  0.50415  0.94397  0.80331  1.0000
  O  Te6       1.0  0.45410  0.85693  0.74502  1.0000
  H   H120      1.0  0.41540  0.55681  0.79128  1.0000
  Mg  Mg3       1.0  0.49177  0.99264  0.76134  1.0000
  C   C217      1.0  0.76466  0.45005  0.47294  1.0000
  C   C218      1.0  0.75727  0.41111  0.44347  1.0000
  C  Sn7       1.0  0.77059  0.30319  0.43805  1.0000
  C  Sn8       1.0  0.79169  0.23312  0.46263  1.0000
  C   C219      1.0  0.79891  0.27279  0.49202  1.0000
  C   C220      1.0  0.78545  0.38095  0.49719  1.0000
  H   H121      1.0  0.75423  0.53369  0.47694  1.0000
  O  Te7       1.0  0.76296  0.26565  0.40847  1.0000
  O  Te8       1.0  0.80533  0.12486  0.45785  1.0000
  H   H122      1.0  0.79116  0.41101  0.52000  1.0000
  Mg  Mg4       1.0  0.78760  0.11167  0.41346  1.0000
  C   C221      1.0  0.03682  0.17450  0.76274  1.0000
  C   C222      1.0  0.99382  0.22046  0.76982  1.0000
  C  Sn9       1.0  0.96640  0.26044  0.74708  1.0000
  C  Sn10      1.0  0.96031  0.25414  0.71672  1.0000
  C   C223      1.0  0.98180  0.20792  0.70986  1.0000
  C   C224      1.0  0.03082  0.16820  0.73279  1.0000
  H   H123      1.0  0.05799  0.14370  0.78048  1.0000
  O  Te9       1.0  0.94533  0.30615  0.75455  1.0000
  O  Te10      1.0  0.93308  0.29342  0.69355  1.0000
  H   H124      1.0  0.04733  0.13254  0.72730  1.0000
  Mg  Mg5       1.0  0.91152  0.34856  0.71505  1.0000
  C   C225      1.0  0.04016  0.17079  0.62173  1.0000
  C   C226      1.0  0.03666  0.17278  0.64742  1.0000
  C  Sn11      1.0  0.06243  0.19527  0.67606  1.0000
  C  Sn12      1.0  0.09222  0.21615  0.67896  1.0000
  C   C227      1.0  0.09547  0.21406  0.65312  1.0000
  C   C228      1.0  0.06953  0.19142  0.62457  1.0000
  H   H125      1.0  0.04174  0.15335  0.59963  1.0000
  O  Te11      1.0  0.05852  0.19689  0.70149  1.0000
  O  Te12      1.0  0.11836  0.23890  0.70731  1.0000
  H   H126      1.0  0.07225  0.18997  0.60468  1.0000
  Mg  Mg6       1.0  0.10120  0.23183  0.73524  1.0000
  C   C229      1.0  0.68379  0.19516  0.09734  1.0000
  C   C230      1.0  0.65872  0.22729  0.10008  1.0000
  C  Sn13      1.0  0.63081  0.24080  0.07435  1.0000
  C  Sn14      1.0  0.62801  0.22168  0.04538  1.0000
  C   C231      1.0  0.65322  0.18946  0.04288  1.0000
  C   C232      1.0  0.68104  0.17623  0.06877  1.0000
  H   H127      1.0  0.70531  0.18485  0.11737  1.0000
  O  Te13      1.0  0.60599  0.27299  0.07750  1.0000
  O  Te14      1.0  0.60038  0.23451  0.01929  1.0000
  H   H128      1.0  0.70044  0.15126  0.06664  1.0000
  Mg  Mg7       1.0  0.57312  0.27961  0.03524  1.0000
  C   C233      1.0  0.10996  0.80847  0.13285  1.0000
  C   C234      1.0  0.10626  0.86898  0.10643  1.0000
  C  Sn15      1.0  0.13135  0.89820  0.10147  1.0000
  C  Sn16      1.0  0.16067  0.86608  0.12341  1.0000
  C   C235      1.0  0.16413  0.80546  0.14975  1.0000
  C   C236      1.0  0.13887  0.77670  0.15449  1.0000
  H   H129      1.0  0.09041  0.78614  0.13651  1.0000
  O  Te15      1.0  0.12725  0.95873  0.07496  1.0000
  O  Te16      1.0  0.18613  0.89413  0.11902  1.0000
  H   H130      1.0  0.14174  0.72976  0.17494  1.0000
  Mg  Mg8       1.0  0.16894  0.97726  0.07928  1.0000
  C   C237      1.0  0.89995  0.87083  0.04101  1.0000
  C   C238      1.0  0.90719  0.83072  0.01904  1.0000
  C  Sn17      1.0  0.38066  0.01517  0.99342  1.0000
  C  Sn18      1.0  0.35097  0.97327  0.98979  1.0000
  C   C239      1.0  0.84859  0.74811  0.01189  1.0000
  C   C240      1.0  0.87068  0.82960  0.03745  1.0000
  H   H131      1.0  0.91704  0.93394  0.06078  1.0000
  O  Te17      1.0  0.38828  0.97597  0.97169  1.0000
  O  Te18      1.0  0.32865  0.89188  0.96440  1.0000
  H   H132      1.0  0.86506  0.86071  0.05444  1.0000
  Mg  Mg9       1.0  0.35003  0.86475  0.94103  1.0000
  C   C241      1.0  0.74970  0.70898  0.02409  1.0000
  C   C242      1.0  0.72416  0.76878  0.00307  1.0000
  C  Sn19      1.0  0.21646  0.06633  0.97492  1.0000
  C  Sn20      1.0  0.23942  0.03740  0.96776  1.0000
  C   C243      1.0  0.26486  0.97747  0.98895  1.0000
  C   C244      1.0  0.77234  0.68036  0.01704  1.0000
  H   H133      1.0  0.75189  0.68477  0.04583  1.0000
  O  Te19      1.0  0.19081  0.12610  0.95418  1.0000
  O  Te20      1.0  0.23692  0.06792  0.93980  1.0000
  H   H134      1.0  0.79211  0.63398  0.03331  1.0000
  Mg  Mg10      1.0  0.19773  0.14881  0.91906  1.0000
  C   C245      1.0  0.45487  0.23147  0.79997  1.0000
  C   C246      1.0  0.48534  0.26972  0.80680  1.0000
  C  Sn21      1.0  0.49251  0.37394  0.79132  1.0000
  C  Sn22      1.0  0.46869  0.44096  0.76860  1.0000
  C   C247      1.0  0.43829  0.40201  0.76195  1.0000
  C   C248      1.0  0.43136  0.29755  0.77757  1.0000
  H   H135      1.0  0.47117  0.15071  0.81207  1.0000
  O  Te21      1.0  0.52308  0.41084  0.79842  1.0000
  O  Te22      1.0  0.47522  0.54549  0.75278  1.0000
  H   H136      1.0  0.40777  0.26803  0.77229  1.0000
  Mg  Mg11      1.0  0.52041  0.55925  0.77060  1.0000
  C   C249      1.0  0.50684  0.32225  0.29028  1.0000
  C   C250      1.0  0.50256  0.23364  0.31008  1.0000
  C  Sn23      1.0  0.52783  0.20066  0.33655  1.0000
  C  Sn24      1.0  0.55791  0.25765  0.34326  1.0000
  C   C251      1.0  0.56195  0.34628  0.32332  1.0000
  C   C252      1.0  0.53650  0.37855  0.29690  1.0000
  H   H137      1.0  0.48716  0.34729  0.26985  1.0000
  O  Te23      1.0  0.52314  0.11191  0.35607  1.0000
  O  Te24      1.0  0.58356  0.22646  0.36956  1.0000
  H   H138      1.0  0.53982  0.44723  0.28158  1.0000
  Mg  Mg12      1.0  0.58703  0.10038  0.38909  1.0000
  C   C253      1.0  0.59235  0.22984  0.93483  1.0000
  C   C254      1.0  0.62027  0.19314  0.93905  1.0000
  C  Sn25      1.0  0.62398  0.16297  0.91421  1.0000
  C  Sn26      1.0  0.59925  0.16979  0.88462  1.0000
  C   C255      1.0  0.57141  0.20671  0.88064  1.0000
  C   C256      1.0  0.56794  0.23665  0.90566  1.0000
  H   H139      1.0  0.58966  0.25308  0.95419  1.0000
  O  Te25      1.0  0.65203  0.12642  0.91883  1.0000
  O  Te26      1.0  0.60234  0.14021  0.85939  1.0000
  H   H140      1.0  0.52467  0.26515  0.90238  1.0000
  Mg  Mg13      1.0  0.64504  0.09536  0.87729  1.0000
  C   C257      1.0  0.71440  0.61205  0.21500  1.0000
  C   C258      1.0  0.69931  0.71059  0.19459  1.0000
  C  Sn27      1.0  0.67715  0.77671  0.19700  1.0000
  C  Sn28      1.0  0.67002  0.74338  0.22032  1.0000
  C   C259      1.0  0.68525  0.64472  0.24065  1.0000
  C   C260      1.0  0.70738  0.57915  0.23802  1.0000
  H   H141      1.0  0.73153  0.56137  0.21298  1.0000
  O  Te27      1.0  0.66229  0.87488  0.17641  1.0000
  O  Te28      1.0  0.64797  0.80793  0.22326  1.0000
  H   H142      1.0  0.71907  0.50292  0.25384  1.0000
  Mg  Mg14      1.0  0.63396  0.93468  0.18971  1.0000
  C   C261      1.0  0.70911  0.85538  0.10903  1.0000
  C   C262      1.0  0.68690  0.87534  0.11729  1.0000
  C  Sn29      1.0  0.65646  0.88093  0.09519  1.0000
  C  Sn30      1.0  0.64817  0.86620  0.06427  1.0000
  C   C263      1.0  0.67056  0.84617  0.05624  1.0000
  C   C264      1.0  0.70095  0.84079  0.07854  1.0000
  H   H143      1.0  0.73262  0.85114  0.12629  1.0000
  O  Te29      1.0  0.63457  0.90099  0.10383  1.0000
  O  Te30      1.0  0.61792  0.87132  0.04171  1.0000
  H   H144      1.0  0.71814  0.82524  0.07214  1.0000
  Mg  Mg15      1.0  0.59634  0.90063  0.06479  1.0000
  C   C265      1.0  0.93954  0.82348  0.55665  1.0000
  C   C266      1.0  0.90843  0.80402  0.54859  1.0000
  C  Sn31      1.0  0.89955  0.80739  0.57075  1.0000
  C  Sn32      1.0  0.92229  0.83074  0.60154  1.0000
  C   C267      1.0  0.95335  0.85019  0.60937  1.0000
  C   C268      1.0  0.96198  0.84657  0.58701  1.0000
  H   H145      1.0  0.94622  0.82076  0.53936  1.0000
  O  Te31      1.0  0.86837  0.78770  0.56231  1.0000
  O  Te32      1.0  0.91405  0.83467  0.62414  1.0000
  H   H146      1.0  0.98607  0.86173  0.59326  1.0000
  Mg  Mg16      1.0  0.86861  0.80211  0.60135  1.0000
  C   C269      1.0  0.02945  0.75703  0.88185  1.0000
  C   C270      1.0  0.00723  0.76957  0.85194  1.0000
  C  Sn33      1.0  0.98163  0.83652  0.84543  1.0000
  C  Sn34      1.0  0.97828  0.89187  0.86935  1.0000
  C   C271      1.0  0.00065  0.87888  0.89920  1.0000
  C   C272      1.0  0.02617  0.81165  0.90546  1.0000
  H   H147      1.0  0.04921  0.70508  0.88670  1.0000
  O  Te33      1.0  0.95965  0.84809  0.81541  1.0000
  O  Te34      1.0  0.95293  0.95933  0.86348  1.0000
  H   H148      1.0  0.04338  0.80204  0.92862  1.0000
  Mg  Mg17      1.0  0.92913  0.94900  0.81887  1.0000
  C   C273      1.0  0.53957  0.74272  0.29427  1.0000
  C   C274      1.0  0.56117  0.67158  0.31735  1.0000
  C  Sn35      1.0  0.55641  0.62714  0.34115  1.0000
  C  Sn36      1.0  0.52951  0.65454  0.34179  1.0000
  C   C275      1.0  0.50804  0.72570  0.31858  1.0000
  C   C276      1.0  0.51303  0.76975  0.29488  1.0000
  H   H149      1.0  0.54343  0.77673  0.27592  1.0000
  O  Te35      1.0  0.57823  0.55624  0.36402  1.0000
  O  Te36      1.0  0.52418  0.61125  0.36530  1.0000
  H   H150      1.0  0.49630  0.82474  0.27701  1.0000
  Mg  Mg18      1.0  0.56066  0.51830  0.39126  1.0000
