data_image0
_chemical_formula_structural       H42C96N36SnCSn2CSnTe4Mg2SnCSn2CSnTe4Mg2SnCSn2CSnTe4Mg2SnCSn2CSnTe4Mg2SnCSn2CSnTe4Mg2SnCSn2CSnTe4Mg2SnCSn2CSnTe4Mg2SnCSn2CSnTe4Mg2SnCSn2CSnTe4Mg2SnCSn2CSnTe4Mg2SnCSn2CSnTe4Mg2SnCSn2CSnTe4Mg2SnCSn2CSnTe4Mg2SnCSn2CSnTe4Mg2SnCSn2CSnTe4Mg2SnCSn2CSnTe4Mg2SnCSn2CSnTe4Mg2SnCSn2CSnTe4Mg2SnCSn2CSnTe4Mg2SnCSn2CSnTe4Mg2SnCSn2CSnTe4Mg2SnCSn2CSnTe4Mg2SnCSn2CSnTe4Mg2SnCSn2CSnTe4Mg2SnCSn2CSnTe4Mg2SnCSn2CSnTe4Mg2SnCSn2CSnTe4Mg2SnCSn2CSnTe4Mg2SnCSn2CSnTe4Mg2SnCSn2CSnTe4Mg2SnCSn2CSnTe4Mg2SnCSn2CSnTe4Mg2SnCSn2CSnTe4Mg2SnCSn2CSnTe4Mg2SnCSn2CSnTe4Mg2SnCSn2CSnTe4Mg2
_chemical_formula_sum              "H42 C168 N36 Sn144 Te144 Mg72"
_cell_length_a       50.1353
_cell_length_b       9.68969
_cell_length_c       50.7474
_cell_angle_alpha    89.7673
_cell_angle_beta     118.927
_cell_angle_gamma    96.4334

_symmetry_space_group_name_H-M    'P1'
_space_group_IT_number       1

loop_
  _space_group_symop_operation_xyz
  'x, y, z'

loop_
  _atom_site_type_symbol
  _atom_site_label
  _atom_site_symmetry_multiplicity
  _atom_site_fract_x
  _atom_site_fract_y
  _atom_site_fract_z
  _atom_site_occupancy
  H   H1        1.0  0.72380  0.78144  0.38069  1.0000
  H   H2        1.0  0.70846  0.26689  0.38477  1.0000
  H   H3        1.0  0.16261  0.71717  0.70833  1.0000
  H   H4        1.0  0.14502  0.10522  0.68512  1.0000
  H   H5        1.0  0.68152  0.75042  0.28295  1.0000
  H   H6        1.0  0.66185  0.23379  0.27878  1.0000
  H   H7        1.0  0.53140  0.93311  0.84827  1.0000
  H   H8        1.0  0.54227  0.32054  0.83643  1.0000
  H   H9        1.0  0.61772  0.76061  0.32518  1.0000
  H   H10       1.0  0.60897  0.24373  0.32589  1.0000
  H   H11       1.0  0.30244  0.68392  0.46206  1.0000
  H   H12       1.0  0.30565  0.06781  0.47692  1.0000
  H   H13       1.0  0.38513  0.25762  0.71770  1.0000
  H   H14       1.0  0.38779  0.77235  0.72187  1.0000
  H   H15       1.0  0.67318  0.09432  0.14953  1.0000
  H   H16       1.0  0.71137  0.71360  0.15891  1.0000
  H   H17       1.0  0.27823  0.22322  0.67148  1.0000
  H   H18       1.0  0.28854  0.74044  0.67820  1.0000
  H   H19       1.0  0.83027  0.33376  0.53990  1.0000
  H   H20       1.0  0.84962  0.92686  0.52369  1.0000
  H   H21       1.0  0.32837  0.22912  0.61853  1.0000
  H   H22       1.0  0.33341  0.74505  0.61764  1.0000
  H   H23       1.0  0.45413  0.22255  0.29831  1.0000
  H   H24       1.0  0.46631  0.82304  0.29395  1.0000
  H   H25       1.0  0.03360  0.26075  0.82331  1.0000
  H   H26       1.0  0.02289  0.70879  0.81988  1.0000
  H   H27       1.0  0.82703  0.26231  0.02678  1.0000
  H   H28       1.0  0.82402  0.79702  0.03454  1.0000
  H   H29       1.0  0.21396  0.34849  0.18267  1.0000
  H   H30       1.0  0.21058  0.80427  0.17383  1.0000
  H   H31       1.0  0.66257  0.25871  0.33058  1.0000
  H   H32       1.0  0.67214  0.75545  0.32905  1.0000
  H   H33       1.0  0.33637  0.74278  0.67087  1.0000
  H   H34       1.0  0.33055  0.24626  0.67044  1.0000
  H   H35       1.0  0.00139  0.74652  0.94876  1.0000
  H   H36       1.0  0.01147  0.26432  0.95453  1.0000
  H   H37       1.0  0.95178  0.73038  0.00489  1.0000
  H   H38       1.0  0.95649  0.24669  0.00361  1.0000
  H   H39       1.0  0.05388  0.75663  0.05154  1.0000
  H   H40       1.0  0.06181  0.27381  0.05490  1.0000
  H   H41       1.0  0.00192  0.75423  0.00093  1.0000
  H   H42       1.0  0.00964  0.25117  0.00477  1.0000
  C   C1        1.0  0.58679  0.42518  0.32340  1.0000
  C   C2        1.0  0.58918  0.57238  0.32323  1.0000
  C   C3        1.0  0.00915  0.18604  0.65644  1.0000
  C   C4        1.0  0.03182  0.84830  0.66571  1.0000
  C   C5        1.0  0.69211  0.44383  0.35850  1.0000
  C   C6        1.0  0.69525  0.58951  0.35806  1.0000
  C   C7        1.0  0.72006  0.66923  0.38167  1.0000
  C   C8        1.0  0.71202  0.37909  0.38373  1.0000
  C   C9        1.0  0.16694  0.76728  0.69105  1.0000
  C   C10       1.0  0.14371  0.17078  0.66693  1.0000
  C   C11       1.0  0.73631  0.45864  0.40854  1.0000
  C   C12       1.0  0.74137  0.60459  0.40668  1.0000
  C   C13       1.0  0.63421  0.18843  0.96692  1.0000
  C   C14       1.0  0.64038  0.83383  0.97807  1.0000
  C   C15       1.0  0.66819  0.42582  0.30351  1.0000
  C   C16       1.0  0.67174  0.57165  0.30368  1.0000
  C   C17       1.0  0.67687  0.63770  0.28196  1.0000
  C   C18       1.0  0.66664  0.34650  0.27991  1.0000
  C   C19       1.0  0.51494  0.85862  0.85114  1.0000
  C   C20       1.0  0.52099  0.27107  0.83554  1.0000
  C   C21       1.0  0.66989  0.41207  0.25665  1.0000
  C   C22       1.0  0.67689  0.55885  0.25881  1.0000
  C   C23       1.0  0.33419  0.16121  0.36703  1.0000
  C   C24       1.0  0.33776  0.79453  0.36262  1.0000
  C   C25       1.0  0.63708  0.43249  0.32776  1.0000
  C   C26       1.0  0.63957  0.57804  0.32720  1.0000
  C   C27       1.0  0.61576  0.64765  0.32493  1.0000
  C   C28       1.0  0.61108  0.35672  0.32599  1.0000
  C   C29       1.0  0.32354  0.73249  0.48186  1.0000
  C   C30       1.0  0.32512  0.14606  0.49111  1.0000
  C   C31       1.0  0.32957  0.55601  0.59294  1.0000
  C   C32       1.0  0.32875  0.40922  0.59372  1.0000
  C   C33       1.0  0.67037  0.84195  0.02912  1.0000
  C   C34       1.0  0.65855  0.19092  0.01835  1.0000
  C   C35       1.0  0.36287  0.57834  0.69720  1.0000
  C   C36       1.0  0.36128  0.43273  0.69685  1.0000
  C   C37       1.0  0.38544  0.36988  0.71868  1.0000
  C   C38       1.0  0.38738  0.66013  0.72068  1.0000
  C   C39       1.0  0.66018  0.18122  0.14793  1.0000
  C   C40       1.0  0.69654  0.77246  0.16377  1.0000
  C   C41       1.0  0.41130  0.59758  0.74377  1.0000
  C   C42       1.0  0.41107  0.45145  0.74184  1.0000
  C   C43       1.0  0.97989  0.84039  0.63663  1.0000
  C   C44       1.0  0.95703  0.18189  0.63244  1.0000
  C   C45       1.0  0.30743  0.56018  0.67300  1.0000
  C   C46       1.0  0.30541  0.41441  0.67263  1.0000
  C   C47       1.0  0.28067  0.33621  0.67316  1.0000
  C   C48       1.0  0.28604  0.62755  0.67616  1.0000
  C   C49       1.0  0.82620  0.26983  0.52017  1.0000
  C   C50       1.0  0.85174  0.84593  0.51003  1.0000
  C   C51       1.0  0.26139  0.55017  0.67761  1.0000
  C   C52       1.0  0.25778  0.40281  0.67453  1.0000
  C   C53       1.0  0.36164  0.78422  0.33424  1.0000
  C   C54       1.0  0.35953  0.14636  0.34022  1.0000
  C   C55       1.0  0.33277  0.56378  0.64229  1.0000
  C   C56       1.0  0.33083  0.41815  0.64231  1.0000
  C   C57       1.0  0.32893  0.34161  0.61831  1.0000
  C   C58       1.0  0.33219  0.63232  0.61785  1.0000
  C   C59       1.0  0.47455  0.19134  0.31801  1.0000
  C   C60       1.0  0.48118  0.77053  0.31424  1.0000
  C   C61       1.0  0.93066  0.05524  0.00480  1.0000
  C   C62       1.0  0.93010  0.90840  0.00612  1.0000
  C   C63       1.0  0.08313  0.09518  0.07725  1.0000
  C   C64       1.0  0.08096  0.94779  0.07636  1.0000
  C   C65       1.0  0.00817  0.08104  0.92864  1.0000
  C   C66       1.0  0.00501  0.93338  0.92676  1.0000
  C   C67       1.0  0.98425  0.19882  0.68378  1.0000
  C   C68       1.0  0.00162  0.84142  0.68791  1.0000
  C   C69       1.0  0.01095  0.24968  0.82209  1.0000
  C   C70       1.0  0.00581  0.77548  0.81823  1.0000
  C   C71       1.0  0.68553  0.16973  0.99330  1.0000
  C   C72       1.0  0.69077  0.80228  0.99877  1.0000
  C   C73       1.0  0.82314  0.19548  0.00745  1.0000
  C   C74       1.0  0.82263  0.75211  0.01393  1.0000
  C   C75       1.0  0.30855  0.16872  0.31589  1.0000
  C   C76       1.0  0.31011  0.79539  0.31131  1.0000
  C   C77       1.0  0.19512  0.28402  0.18392  1.0000
  C   C78       1.0  0.19103  0.80661  0.17799  1.0000
  C   C79       1.0  0.66477  0.37214  0.33014  1.0000
  C   C80       1.0  0.67003  0.64199  0.32951  1.0000
  C   C81       1.0  0.33509  0.62935  0.67077  1.0000
  C   C82       1.0  0.33181  0.35977  0.67061  1.0000
  C   C83       1.0  0.00378  0.85954  0.95018  1.0000
  C   C84       1.0  0.00894  0.15127  0.95318  1.0000
  C   C85       1.0  0.95281  0.84298  0.00434  1.0000
  C   C86       1.0  0.95568  0.13417  0.00421  1.0000
  C   C87       1.0  0.05542  0.86947  0.05239  1.0000
  C   C88       1.0  0.06002  0.16096  0.05405  1.0000
  C   C89       1.0  0.00380  0.86791  0.00181  1.0000
  C   C90       1.0  0.00783  0.13748  0.00389  1.0000
  C   C91       1.0  0.97692  0.92252  0.00294  1.0000
  C   C92       1.0  0.97882  0.06823  0.00376  1.0000
  C   C93       1.0  0.03262  0.93635  0.02962  1.0000
  C   C94       1.0  0.03484  0.08208  0.03056  1.0000
  C   C95       1.0  0.00490  0.93084  0.97458  1.0000
  C   C96       1.0  0.00713  0.07661  0.97585  1.0000
  N   N1        1.0  0.95660  0.19283  0.65871  1.0000
  N   N2        1.0  0.97577  0.83970  0.66107  1.0000
  N   N3        1.0  0.14725  0.83846  0.67085  1.0000
  N   N4        1.0  0.11841  0.21473  0.64758  1.0000
  N   N5        1.0  0.68583  0.17569  0.02007  1.0000
  N   N6        1.0  0.69520  0.81695  0.02711  1.0000
  N   N7        1.0  0.52138  0.80961  0.87694  1.0000
  N   N8        1.0  0.52151  0.20716  0.85814  1.0000
  N   N9        1.0  0.33390  0.15406  0.31373  1.0000
  N   N10       1.0  0.33524  0.78906  0.30820  1.0000
  N   N11       1.0  0.34610  0.79475  0.47895  1.0000
  N   N12       1.0  0.34424  0.20067  0.48276  1.0000
  N   N13       1.0  0.66402  0.81119  0.97350  1.0000
  N   N14       1.0  0.66027  0.17476  0.96612  1.0000
  N   N15       1.0  0.64672  0.24704  0.12375  1.0000
  N   N16       1.0  0.67932  0.85554  0.14472  1.0000
  N   N17       1.0  0.03020  0.84646  0.69144  1.0000
  N   N18       1.0  0.01114  0.19540  0.68390  1.0000
  N   N19       1.0  0.84538  0.18648  0.52205  1.0000
  N   N20       1.0  0.87649  0.78831  0.51895  1.0000
  N   N21       1.0  0.31006  0.79761  0.33790  1.0000
  N   N22       1.0  0.30731  0.17139  0.34188  1.0000
  N   N23       1.0  0.47286  0.14197  0.34089  1.0000
  N   N24       1.0  0.47395  0.74021  0.33494  1.0000
  N   N25       1.0  0.98257  0.17784  0.63015  1.0000
  N   N26       1.0  0.00745  0.84443  0.63789  1.0000
  N   N27       1.0  0.98573  0.23847  0.79666  1.0000
  N   N28       1.0  0.98925  0.83601  0.79388  1.0000
  N   N29       1.0  0.63230  0.19833  0.99236  1.0000
  N   N30       1.0  0.64245  0.85095  0.00540  1.0000
  N   N31       1.0  0.79616  0.13567  0.98842  1.0000
  N   N32       1.0  0.79645  0.71282  0.99039  1.0000
  N   N33       1.0  0.36084  0.14932  0.36731  1.0000
  N   N34       1.0  0.36405  0.78741  0.36185  1.0000
  N   N35       1.0  0.19854  0.22078  0.20757  1.0000
  N   N36       1.0  0.19424  0.80285  0.20482  1.0000
  C  Sn1       1.0  0.05628  0.21381  0.62200  1.0000
  C   C97       1.0  0.08654  0.23321  0.64562  1.0000
  C  Sn2       1.0  0.09284  0.21563  0.67533  1.0000
  C  Sn3       1.0  0.09003  0.17778  0.68156  1.0000
  C   C98       1.0  0.05979  0.15838  0.65794  1.0000
  C  Sn4       1.0  0.03182  0.17596  0.62822  1.0000
  O  Te1       1.0  0.05052  0.23194  0.59247  1.0000
  O  Te2       1.0  0.12328  0.23565  0.69857  1.0000
  O  Te3       1.0  0.09582  0.15966  0.71112  1.0000
  O  Te4       1.0  0.02305  0.15594  0.60499  1.0000
  Mg  Mg1       1.0  0.11945  0.19867  0.73508  1.0000
  Mg  Mg2       1.0  0.00520  0.19282  0.56848  1.0000
  C  Sn5       1.0  0.08702  0.88887  0.64044  1.0000
  C   C99       1.0  0.11560  0.89282  0.66642  1.0000
  C  Sn6       1.0  0.11743  0.86515  0.69424  1.0000
  C  Sn7       1.0  0.09013  0.83276  0.69614  1.0000
  C   C100      1.0  0.06158  0.82879  0.67017  1.0000
  C  Sn8       1.0  0.05972  0.85648  0.64233  1.0000
  O  Te5       1.0  0.08573  0.91688  0.61285  1.0000
  O  Te6       1.0  0.14626  0.86977  0.71991  1.0000
  O  Te7       1.0  0.09144  0.80474  0.72375  1.0000
  O  Te8       1.0  0.03092  0.85184  0.61668  1.0000
  Mg  Mg3       1.0  0.13609  0.82378  0.75233  1.0000
  Mg  Mg4       1.0  0.04105  0.89774  0.58425  1.0000
  C  Sn9       1.0  0.01729  0.22139  0.76391  1.0000
  C   C101      1.0  0.99421  0.25408  0.76988  1.0000
  C  Sn10      1.0  0.96431  0.25671  0.74635  1.0000
  C  Sn11      1.0  0.95731  0.22594  0.71622  1.0000
  C   C102      1.0  0.98038  0.19326  0.71026  1.0000
  C  Sn12      1.0  0.03196  0.19063  0.73378  1.0000
  O  Te9       1.0  0.04703  0.21938  0.78779  1.0000
  O  Te10      1.0  0.94162  0.28972  0.75288  1.0000
  O  Te11      1.0  0.92754  0.22799  0.69233  1.0000
  O  Te12      1.0  0.05463  0.15762  0.72726  1.0000
  Mg  Mg5       1.0  0.90455  0.27885  0.71266  1.0000
  Mg  Mg6       1.0  0.09171  0.16839  0.76746  1.0000
  C  Sn13      1.0  0.96412  0.80630  0.73245  1.0000
  C   C103      1.0  0.98739  0.79733  0.76207  1.0000
  C  Sn14      1.0  0.01822  0.82014  0.76921  1.0000
  C  Sn15      1.0  0.02595  0.85267  0.74627  1.0000
  C   C104      1.0  0.00269  0.86165  0.71667  1.0000
  C  Sn16      1.0  0.97186  0.83884  0.70951  1.0000
  O  Te13      1.0  0.93346  0.78311  0.72584  1.0000
  O  Te14      1.0  0.04108  0.81055  0.79898  1.0000
  O  Te15      1.0  0.05665  0.87586  0.75291  1.0000
  O  Te16      1.0  0.94901  0.84844  0.67976  1.0000
  Mg  Mg7       1.0  0.07952  0.85107  0.79679  1.0000
  Mg  Mg8       1.0  0.91055  0.80801  0.68193  1.0000
  C  Sn17      1.0  0.05737  0.14005  0.87735  1.0000
  C   C105      1.0  0.03501  0.20173  0.85288  1.0000
  C  Sn18      1.0  0.98998  0.25684  0.85525  1.0000
  C  Sn19      1.0  0.98893  0.25025  0.88267  1.0000
  C   C106      1.0  0.03293  0.18863  0.90712  1.0000
  C  Sn20      1.0  0.05632  0.13346  0.90476  1.0000
  O  Te17      1.0  0.08053  0.08564  0.87446  1.0000
  O  Te18      1.0  0.96788  0.31794  0.83048  1.0000
  O  Te19      1.0  0.96574  0.30473  0.88553  1.0000
  O  Te20      1.0  0.07841  0.07241  0.92952  1.0000
  Mg  Mg9       1.0  0.94089  0.37756  0.84548  1.0000
  Mg  Mg10      1.0  0.10542  0.01283  0.91455  1.0000
  C  Sn21      1.0  0.98189  0.90899  0.84979  1.0000
  C   C107      1.0  0.00334  0.84012  0.84667  1.0000
  C  Sn22      1.0  0.02333  0.76537  0.87018  1.0000
  C  Sn23      1.0  0.02184  0.75926  0.89737  1.0000
  C   C108      1.0  0.00041  0.82808  0.90049  1.0000
  C  Sn24      1.0  0.98041  0.90288  0.87699  1.0000
  O  Te21      1.0  0.96213  0.98309  0.82600  1.0000
  O  Te22      1.0  0.04458  0.69741  0.86653  1.0000
  O  Te23      1.0  0.04163  0.68508  0.92118  1.0000
  O  Te24      1.0  0.95917  0.97079  0.88063  1.0000
  Mg  Mg11      1.0  0.06659  0.60981  0.90540  1.0000
  Mg  Mg12      1.0  0.93714  0.05835  0.84177  1.0000
  C  Sn25      1.0  0.22332  0.55807  0.70357  1.0000
  C   C109      1.0  0.23328  0.59169  0.68267  1.0000
  C  Sn26      1.0  0.22578  0.71236  0.66686  1.0000
  C  Sn27      1.0  0.20798  0.80135  0.67206  1.0000
  C   C110      1.0  0.19804  0.76773  0.69296  1.0000
  C  Sn28      1.0  0.20552  0.64705  0.70877  1.0000
  O  Te25      1.0  0.23108  0.43690  0.71912  1.0000
  O  Te26      1.0  0.23599  0.74376  0.64608  1.0000
  O  Te27      1.0  0.20022  0.92258  0.65649  1.0000
  O  Te28      1.0  0.19532  0.61566  0.72955  1.0000
  Mg  Mg13      1.0  0.21951  0.92063  0.63048  1.0000
  Mg  Mg14      1.0  0.21180  0.43886  0.74517  1.0000
  C  Sn29      1.0  0.17701  0.29179  0.63827  1.0000
  C   C111      1.0  0.17219  0.19653  0.65676  1.0000
  C  Sn30      1.0  0.21829  0.16960  0.68450  1.0000
  C  Sn31      1.0  0.22652  0.23939  0.69396  1.0000
  C   C112      1.0  0.23132  0.33459  0.67547  1.0000
  C  Sn32      1.0  0.20689  0.36158  0.64773  1.0000
  O  Te29      1.0  0.15223  0.31711  0.61063  1.0000
  O  Te30      1.0  0.21291  0.07390  0.70259  1.0000
  O  Te31      1.0  0.25130  0.21398  0.72162  1.0000
  O  Te32      1.0  0.21225  0.45723  0.62964  1.0000
  Mg  Mg15      1.0  0.25405  0.07468  0.73831  1.0000
  Mg  Mg16      1.0  0.17113  0.45658  0.59392  1.0000
  C  Sn33      1.0  0.55844  0.26629  0.91849  1.0000
  C   C113      1.0  0.55273  0.23884  0.88908  1.0000
  C  Sn34      1.0  0.59505  0.17352  0.88394  1.0000
  C  Sn35      1.0  0.62197  0.13475  0.90872  1.0000
  C   C114      1.0  0.62766  0.16218  0.93810  1.0000
  C  Sn36      1.0  0.60701  0.22752  0.94326  1.0000
  O  Te33      1.0  0.53746  0.33169  0.92310  1.0000
  O  Te34      1.0  0.58885  0.14721  0.85434  1.0000
  O  Te35      1.0  0.64295  0.06931  0.90409  1.0000
  O  Te36      1.0  0.61320  0.25381  0.97285  1.0000
  Mg  Mg17      1.0  0.62437  0.05565  0.85962  1.0000
  Mg  Mg18      1.0  0.55603  0.34529  0.96759  1.0000
  C  Sn37      1.0  0.56254  0.89928  0.93609  1.0000
  C   C115      1.0  0.55386  0.86853  0.90592  1.0000
  C  Sn38      1.0  0.57352  0.80832  0.89840  1.0000
  C  Sn39      1.0  0.60244  0.77813  0.92153  1.0000
  C   C116      1.0  0.61110  0.80885  0.95168  1.0000
  C  Sn40      1.0  0.59146  0.86909  0.95922  1.0000
  O  Te37      1.0  0.54252  0.95946  0.94309  1.0000
  O  Te38      1.0  0.56434  0.77857  0.86808  1.0000
  O  Te39      1.0  0.62246  0.71791  0.91451  1.0000
  O  Te40      1.0  0.60062  0.89881  0.98952  1.0000
  Mg  Mg19      1.0  0.59961  0.69665  0.86992  1.0000
  Mg  Mg20      1.0  0.56536  0.98065  0.98771  1.0000
  C  Sn41      1.0  0.75996  0.21005  0.96508  1.0000
  C   C117      1.0  0.78828  0.18308  0.98866  1.0000
  C  Sn42      1.0  0.29497  0.86376  0.01510  1.0000
  C  Sn43      1.0  0.26816  0.83667  0.01803  1.0000
  C   C118      1.0  0.73523  0.12953  0.99446  1.0000
  C  Sn44      1.0  0.73315  0.18296  0.96801  1.0000
  O  Te41      1.0  0.73679  0.26343  0.93885  1.0000
  O  Te42      1.0  0.32354  0.83768  0.03837  1.0000
  O  Te43      1.0  0.26970  0.78326  0.04429  1.0000
  O  Te44      1.0  0.70460  0.20902  0.94475  1.0000
  Mg  Mg21      1.0  0.31385  0.76488  0.06968  1.0000
  Mg  Mg22      1.0  0.69261  0.28174  0.91342  1.0000
  C  Sn45      1.0  0.75983  0.66237  0.01849  1.0000
  C   C119      1.0  0.26083  0.94739  0.99423  1.0000
  C  Sn46      1.0  0.24298  0.02746  0.97059  1.0000
  C  Sn47      1.0  0.21900  0.08983  0.97122  1.0000
  C   C120      1.0  0.21337  0.07073  0.99547  1.0000
  C  Sn48      1.0  0.73585  0.72473  0.01912  1.0000
  O  Te45      1.0  0.77796  0.58190  0.04187  1.0000
  O  Te46      1.0  0.24905  0.04504  0.94658  1.0000
  O  Te47      1.0  0.20086  0.17034  0.94781  1.0000
  O  Te48      1.0  0.72980  0.70716  0.04313  1.0000
  Mg  Mg23      1.0  0.21804  0.16393  0.92005  1.0000
  Mg  Mg24      1.0  0.76079  0.58837  0.06967  1.0000
  C  Sn49      1.0  0.88651  0.27089  0.02349  1.0000
  C   C121      1.0  0.85581  0.22437  0.00304  1.0000
  C  Sn50      1.0  0.34364  0.37755  0.98258  1.0000
  C  Sn51      1.0  0.36729  0.30982  0.98258  1.0000
  C   C122      1.0  0.90261  0.09041  0.00302  1.0000
  C  Sn52      1.0  0.91017  0.20316  0.02349  1.0000
  O  Te49      1.0  0.89351  0.38379  0.04374  1.0000
  O  Te50      1.0  0.31277  0.33296  0.96234  1.0000
  O  Te51      1.0  0.38192  0.19685  0.96230  1.0000
  O  Te52      1.0  0.94101  0.24774  0.04372  1.0000
  Mg  Mg25      1.0  0.33650  0.17462  0.93914  1.0000
  Mg  Mg26      1.0  0.93897  0.40601  0.06695  1.0000
  C  Sn53      1.0  0.88097  0.87670  0.03618  1.0000
  C   C123      1.0  0.85434  0.79236  0.01563  1.0000
  C  Sn54      1.0  0.34988  0.97544  0.99326  1.0000
  C  Sn55      1.0  0.37723  0.97686  0.99140  1.0000
  C   C124      1.0  0.90848  0.79523  0.01194  1.0000
  C  Sn56      1.0  0.90833  0.87813  0.03432  1.0000
  O  Te53      1.0  0.88027  0.95866  0.05836  1.0000
  O  Te54      1.0  0.32297  0.89202  0.97296  1.0000
  O  Te55      1.0  0.37791  0.89481  0.96919  1.0000
  O  Te56      1.0  0.93522  0.96149  0.05460  1.0000
  Mg  Mg27      1.0  0.33544  0.79863  0.94675  1.0000
  Mg  Mg28      1.0  0.90112  0.05486  0.08083  1.0000
  C  Sn57      1.0  0.46953  0.87908  0.78945  1.0000
  C   C125      1.0  0.47894  0.84621  0.81927  1.0000
  C  Sn58      1.0  0.46762  0.71940  0.82558  1.0000
  C  Sn59      1.0  0.44646  0.62338  0.80159  1.0000
  C   C126      1.0  0.43706  0.65626  0.77179  1.0000
  C  Sn60      1.0  0.44837  0.78306  0.76546  1.0000
  O  Te57      1.0  0.48115  0.00645  0.78366  1.0000
  O  Te58      1.0  0.47736  0.68888  0.85557  1.0000
  O  Te59      1.0  0.43484  0.49593  0.80740  1.0000
  O  Te60      1.0  0.43865  0.81358  0.73549  1.0000
  Mg  Mg29      1.0  0.45503  0.50190  0.85198  1.0000
  Mg  Mg30      1.0  0.46097  0.00049  0.73906  1.0000
  C  Sn61      1.0  0.49003  0.44173  0.79046  1.0000
  C   C127      1.0  0.49257  0.33541  0.80993  1.0000
  C  Sn62      1.0  0.46701  0.24016  0.80408  1.0000
  C  Sn63      1.0  0.43831  0.25134  0.77821  1.0000
  C   C128      1.0  0.43578  0.35758  0.75876  1.0000
  C  Sn64      1.0  0.46133  0.45291  0.76460  1.0000
  O  Te61      1.0  0.51589  0.53580  0.79676  1.0000
  O  Te62      1.0  0.49177  0.13479  0.82388  1.0000
  O  Te63      1.0  0.43410  0.15716  0.77193  1.0000
  O  Te64      1.0  0.45824  0.55821  0.74481  1.0000
  Mg  Mg31      1.0  0.44990  0.03169  0.80562  1.0000
  Mg  Mg32      1.0  0.50010  0.66132  0.76303  1.0000
  C  Sn65      1.0  0.31051  0.23221  0.40515  1.0000
  C   C129      1.0  0.33332  0.20695  0.39812  1.0000
  C  Sn66      1.0  0.35985  0.15489  0.41951  1.0000
  C  Sn67      1.0  0.36366  0.12741  0.44852  1.0000
  C   C130      1.0  0.34086  0.15265  0.45554  1.0000
  C  Sn68      1.0  0.31432  0.20474  0.43417  1.0000
  O  Te65      1.0  0.28417  0.28427  0.38342  1.0000
  O  Te66      1.0  0.38234  0.13051  0.41196  1.0000
  O  Te67      1.0  0.41168  0.07532  0.47026  1.0000
  O  Te68      1.0  0.29183  0.22909  0.44170  1.0000
  Mg  Mg33      1.0  0.43581  0.05906  0.44924  1.0000
  Mg  Mg34      1.0  0.26001  0.30047  0.40444  1.0000
  C  Sn69      1.0  0.37358  0.82115  0.44299  1.0000
  C   C131      1.0  0.35031  0.84028  0.44979  1.0000
  C  Sn70      1.0  0.31969  0.82774  0.42700  1.0000
  C  Sn71      1.0  0.31216  0.79534  0.39677  1.0000
  C   C132      1.0  0.33542  0.77621  0.38998  1.0000
  C  Sn72      1.0  0.36605  0.78875  0.41276  1.0000
  O  Te69      1.0  0.40404  0.83417  0.46614  1.0000
  O  Te70      1.0  0.29683  0.84737  0.43435  1.0000
  O  Te71      1.0  0.28168  0.78233  0.37361  1.0000
  O  Te72      1.0  0.38890  0.76911  0.40542  1.0000
  Mg  Mg35      1.0  0.25871  0.81857  0.39492  1.0000
  Mg  Mg36      1.0  0.42703  0.79782  0.44483  1.0000
  C  Sn73      1.0  0.26134  0.19185  0.23703  1.0000
  C   C133      1.0  0.23124  0.18313  0.23209  1.0000
  C  Sn74      1.0  0.22556  0.18787  0.25643  1.0000
  C  Sn75      1.0  0.25050  0.20169  0.28633  1.0000
  C   C134      1.0  0.28058  0.21042  0.29125  1.0000
  C  Sn76      1.0  0.28627  0.20567  0.26692  1.0000
  O  Te73      1.0  0.26647  0.18690  0.21236  1.0000
  O  Te74      1.0  0.19527  0.17891  0.25093  1.0000
  O  Te75      1.0  0.24534  0.20663  0.31100  1.0000
  O  Te76      1.0  0.31654  0.21464  0.27241  1.0000
  Mg  Mg37      1.0  0.20002  0.19054  0.29196  1.0000
  Mg  Mg38      1.0  0.31181  0.20310  0.23141  1.0000
  C  Sn77      1.0  0.27424  0.89506  0.25346  1.0000
  C   C135      1.0  0.27919  0.84107  0.28083  1.0000
  C  Sn78      1.0  0.25569  0.75639  0.28254  1.0000
  C  Sn79      1.0  0.22664  0.72494  0.25636  1.0000
  C   C136      1.0  0.22170  0.77888  0.22902  1.0000
  C  Sn80      1.0  0.24519  0.86360  0.22728  1.0000
  O  Te77      1.0  0.29807  0.97948  0.25227  1.0000
  O  Te78      1.0  0.26119  0.70368  0.31015  1.0000
  O  Te79      1.0  0.20280  0.64044  0.25757  1.0000
  O  Te80      1.0  0.23971  0.91628  0.19969  1.0000
  Mg  Mg39      1.0  0.22149  0.59344  0.30035  1.0000
  Mg  Mg40      1.0  0.27939  0.02646  0.20946  1.0000
  C  Sn81      1.0  0.13585  0.14544  0.15375  1.0000
  C   C137      1.0  0.16261  0.21887  0.15610  1.0000
  C  Sn82      1.0  0.16188  0.28805  0.13160  1.0000
  C  Sn83      1.0  0.13381  0.28383  0.10418  1.0000
  C   C138      1.0  0.10706  0.21046  0.10184  1.0000
  C  Sn84      1.0  0.10778  0.14122  0.12633  1.0000
  O  Te81      1.0  0.13712  0.07706  0.17853  1.0000
  O  Te82      1.0  0.18894  0.36074  0.13448  1.0000
  O  Te83      1.0  0.13256  0.35230  0.07939  1.0000
  O  Te84      1.0  0.08074  0.06859  0.12346  1.0000
  Mg  Mg41      1.0  0.17551  0.43739  0.09439  1.0000
  Mg  Mg42      1.0  0.11579  0.99197  0.16354  1.0000
  C  Sn85      1.0  0.12488  0.75872  0.14274  1.0000
  C   C139      1.0  0.15479  0.77814  0.14703  1.0000
  C  Sn86      1.0  0.16184  0.86164  0.12818  1.0000
  C  Sn87      1.0  0.13851  0.92717  0.10456  1.0000
  C   C140      1.0  0.10862  0.90775  0.10029  1.0000
  C  Sn88      1.0  0.10155  0.82425  0.11913  1.0000
  O  Te85      1.0  0.11835  0.67481  0.16186  1.0000
  O  Te86      1.0  0.19190  0.87947  0.13290  1.0000
  O  Te87      1.0  0.14506  0.01112  0.08544  1.0000
  O  Te88      1.0  0.07150  0.80643  0.11442  1.0000
  Mg  Mg43      1.0  0.18944  0.00364  0.10092  1.0000
  Mg  Mg44      1.0  0.07394  0.68234  0.14639  1.0000
  C  Sn89      1.0  0.30341  0.54876  0.53036  1.0000
  C   C141      1.0  0.32593  0.59070  0.55991  1.0000
  C  Sn90      1.0  0.34725  0.70817  0.56567  1.0000
  C  Sn91      1.0  0.34602  0.78540  0.54139  1.0000
  C   C142      1.0  0.32351  0.74347  0.51186  1.0000
  C  Sn92      1.0  0.30218  0.62599  0.50608  1.0000
  O  Te89      1.0  0.28233  0.43100  0.52513  1.0000
  O  Te90      1.0  0.36956  0.74803  0.59540  1.0000
  O  Te91      1.0  0.36713  0.90324  0.54665  1.0000
  O  Te92      1.0  0.27988  0.58614  0.47637  1.0000
  Mg  Mg45      1.0  0.39319  0.91600  0.59105  1.0000
  Mg  Mg46      1.0  0.25623  0.41824  0.48070  1.0000
  C  Sn93      1.0  0.34936  0.38418  0.55204  1.0000
  C   C143      1.0  0.32934  0.35405  0.56373  1.0000
  C  Sn94      1.0  0.30952  0.22945  0.55502  1.0000
  C  Sn95      1.0  0.33137  0.13289  0.53420  1.0000
  C   C144      1.0  0.32973  0.16302  0.52253  1.0000
  C  Sn96      1.0  0.34956  0.28762  0.53122  1.0000
  O  Te93      1.0  0.36898  0.50938  0.56106  1.0000
  O  Te94      1.0  0.28971  0.20166  0.56700  1.0000
  O  Te95      1.0  0.31173  0.00761  0.52518  1.0000
  O  Te96      1.0  0.36936  0.31541  0.51925  1.0000
  Mg  Mg47      1.0  0.28897  0.01694  0.54779  1.0000
  Mg  Mg48      1.0  0.39178  0.50006  0.53846  1.0000
  C  Sn97      1.0  0.64626  0.83175  0.08411  1.0000
  C   C145      1.0  0.67305  0.83350  0.11187  1.0000
  C  Sn98      1.0  0.70185  0.86158  0.11367  1.0000
  C  Sn99      1.0  0.70392  0.88857  0.08718  1.0000
  C   C146      1.0  0.67714  0.88684  0.05945  1.0000
  C  Sn100     1.0  0.64833  0.85874  0.05762  1.0000
  O  Te97      1.0  0.61772  0.80344  0.08284  1.0000
  O  Te98      1.0  0.72831  0.86271  0.14167  1.0000
  O  Te99      1.0  0.73250  0.91689  0.08848  1.0000
  O  Te100     1.0  0.62189  0.85763  0.02965  1.0000
  Mg  Mg49      1.0  0.76191  0.90673  0.13184  1.0000
  Mg  Mg50      1.0  0.58827  0.81370  0.03946  1.0000
  C  Sn101     1.0  0.68093  0.15256  0.08107  1.0000
  C   C147      1.0  0.65851  0.16363  0.05118  1.0000
  C  Sn102     1.0  0.63178  0.22107  0.04466  1.0000
  C  Sn103     1.0  0.62739  0.26853  0.06852  1.0000
  C   C148      1.0  0.64981  0.25747  0.09840  1.0000
  C  Sn104     1.0  0.67654  0.20002  0.10494  1.0000
  O  Te101     1.0  0.70747  0.09479  0.08706  1.0000
  O  Te102     1.0  0.60968  0.23100  0.01459  1.0000
  O  Te103     1.0  0.60082  0.32632  0.06251  1.0000
  O  Te104     1.0  0.69863  0.19010  0.13498  1.0000
  Mg  Mg51      1.0  0.57739  0.31752  0.01791  1.0000
  Mg  Mg52      1.0  0.73094  0.10367  0.13170  1.0000
  C  Sn105     1.0  0.67337  0.14548  0.20910  1.0000
  C   C149      1.0  0.65514  0.18298  0.17962  1.0000
  C  Sn106     1.0  0.64223  0.30752  0.17432  1.0000
  C  Sn107     1.0  0.64768  0.39649  0.19900  1.0000
  C   C150      1.0  0.66591  0.35899  0.22846  1.0000
  C  Sn108     1.0  0.67882  0.23445  0.23378  1.0000
  O  Te105     1.0  0.70770  0.02048  0.21387  1.0000
  O  Te106     1.0  0.62407  0.34276  0.14464  1.0000
  O  Te107     1.0  0.63499  0.52156  0.19421  1.0000
  O  Te108     1.0  0.69698  0.19921  0.26343  1.0000
  Mg  Mg53      1.0  0.61188  0.52401  0.14970  1.0000
  Mg  Mg54      1.0  0.73085  0.01803  0.25840  1.0000
  C  Sn109     1.0  0.67873  0.81799  0.20871  1.0000
  C   C151      1.0  0.69797  0.77567  0.19838  1.0000
  C  Sn110     1.0  0.70995  0.64929  0.20650  1.0000
  C  Sn111     1.0  0.70252  0.56335  0.22531  1.0000
  C   C152      1.0  0.68329  0.60566  0.23562  1.0000
  C  Sn112     1.0  0.67130  0.73205  0.22752  1.0000
  O  Te109     1.0  0.66702  0.94474  0.20031  1.0000
  O  Te110     1.0  0.72915  0.60922  0.19590  1.0000
  O  Te111     1.0  0.71426  0.43651  0.23371  1.0000
  O  Te112     1.0  0.65211  0.77211  0.23810  1.0000
  Mg  Mg55      1.0  0.73940  0.42725  0.21354  1.0000
  Mg  Mg56      1.0  0.64184  0.95402  0.22047  1.0000
  C  Sn113     1.0  0.91567  0.78484  0.59767  1.0000
  C   C153      1.0  0.94660  0.79517  0.60522  1.0000
  C  Sn114     1.0  0.95552  0.82662  0.58349  1.0000
  C  Sn115     1.0  0.93304  0.84829  0.55360  1.0000
  C   C154      1.0  0.90213  0.83798  0.54607  1.0000
  C  Sn116     1.0  0.89319  0.80651  0.56777  1.0000
  O  Te113     1.0  0.90728  0.75330  0.61975  1.0000
  O  Te114     1.0  0.98658  0.83635  0.59158  1.0000
  O  Te115     1.0  0.94146  0.87985  0.53152  1.0000
  O  Te116     1.0  0.86215  0.79681  0.55971  1.0000
  Mg  Mg57      1.0  0.98662  0.88181  0.55352  1.0000
  Mg  Mg58      1.0  0.86209  0.75143  0.59774  1.0000
  C  Sn117     1.0  0.92685  0.12722  0.55358  1.0000
  C   C155      1.0  0.89759  0.13218  0.55015  1.0000
  C  Sn118     1.0  0.87249  0.17164  0.57468  1.0000
  C  Sn119     1.0  0.89883  0.20697  0.60322  1.0000
  C   C156      1.0  0.92807  0.20203  0.60663  1.0000
  C  Sn120     1.0  0.93154  0.16256  0.58212  1.0000
  O  Te117     1.0  0.92975  0.08749  0.52876  1.0000
  O  Te118     1.0  0.84300  0.17577  0.57070  1.0000
  O  Te119     1.0  0.89591  0.24672  0.62805  1.0000
  O  Te120     1.0  0.96101  0.15844  0.58609  1.0000
  Mg  Mg59      1.0  0.85091  0.23644  0.61132  1.0000
  Mg  Mg60      1.0  0.97478  0.09785  0.54548  1.0000
  C  Sn121     1.0  0.76942  0.23322  0.44171  1.0000
  C   C157      1.0  0.75172  0.34139  0.43742  1.0000
  C  Sn122     1.0  0.75957  0.43888  0.46102  1.0000
  C  Sn123     1.0  0.78567  0.42809  0.48950  1.0000
  C   C158      1.0  0.80336  0.31999  0.49377  1.0000
  C  Sn124     1.0  0.79552  0.22243  0.47019  1.0000
  O  Te121     1.0  0.76114  0.13693  0.41780  1.0000
  O  Te122     1.0  0.74152  0.54608  0.45619  1.0000
  O  Te123     1.0  0.79394  0.52450  0.51341  1.0000
  O  Te124     1.0  0.83521  0.11530  0.47500  1.0000
  Mg  Mg61      1.0  0.76215  0.65189  0.49574  1.0000
  Mg  Mg62      1.0  0.81462  0.00948  0.43547  1.0000
  C  Sn125     1.0  0.82228  0.70276  0.45185  1.0000
  C   C159      1.0  0.82597  0.81043  0.47202  1.0000
  C  Sn126     1.0  0.80045  0.85200  0.47259  1.0000
  C  Sn127     1.0  0.77063  0.78448  0.45260  1.0000
  C   C160      1.0  0.76695  0.67686  0.43245  1.0000
  C  Sn128     1.0  0.79246  0.63524  0.43186  1.0000
  O  Te125     1.0  0.84811  0.66291  0.45167  1.0000
  O  Te126     1.0  0.80471  0.95993  0.49295  1.0000
  O  Te127     1.0  0.74478  0.82442  0.45280  1.0000
  O  Te128     1.0  0.78821  0.52736  0.41152  1.0000
  Mg  Mg63      1.0  0.76238  0.97677  0.48465  1.0000
  Mg  Mg64      1.0  0.83052  0.51039  0.41981  1.0000
  C  Sn129     1.0  0.39419  0.68879  0.30653  1.0000
  C   C161      1.0  0.39048  0.73457  0.33051  1.0000
  C  Sn130     1.0  0.41532  0.80539  0.35599  1.0000
  C  Sn131     1.0  0.44447  0.83107  0.35752  1.0000
  C   C162      1.0  0.44816  0.78533  0.33356  1.0000
  C  Sn132     1.0  0.42333  0.71448  0.30807  1.0000
  O  Te129     1.0  0.36903  0.61821  0.28129  1.0000
  O  Te130     1.0  0.41106  0.85010  0.37968  1.0000
  O  Te131     1.0  0.46963  0.90172  0.38280  1.0000
  O  Te132     1.0  0.42758  0.66980  0.28439  1.0000
  Mg  Mg65      1.0  0.45232  0.94203  0.40927  1.0000
  Mg  Mg66      1.0  0.38634  0.57793  0.25478  1.0000
  C  Sn133     1.0  0.41470  0.05303  0.31350  1.0000
  C   C163      1.0  0.38891  0.09491  0.33746  1.0000
  C  Sn134     1.0  0.41330  0.16704  0.36307  1.0000
  C  Sn135     1.0  0.44243  0.19803  0.36477  1.0000
  C   C164      1.0  0.44656  0.15618  0.34082  1.0000
  C  Sn136     1.0  0.42218  0.08402  0.31520  1.0000
  O  Te133     1.0  0.38999  0.98104  0.28812  1.0000
  O  Te134     1.0  0.40860  0.20779  0.38674  1.0000
  O  Te135     1.0  0.46715  0.27007  0.39018  1.0000
  O  Te136     1.0  0.44852  0.04330  0.29154  1.0000
  Mg  Mg67      1.0  0.44935  0.30357  0.41656  1.0000
  Mg  Mg68      1.0  0.40779  0.94758  0.26171  1.0000
  C  Sn137     1.0  0.50776  0.27920  0.28766  1.0000
  C   C165      1.0  0.50403  0.20264  0.30931  1.0000
  C  Sn138     1.0  0.52845  0.20251  0.33863  1.0000
  C  Sn139     1.0  0.55721  0.28060  0.34648  1.0000
  C   C166      1.0  0.56093  0.35711  0.32485  1.0000
  C  Sn140     1.0  0.53651  0.35728  0.29552  1.0000
  O  Te137     1.0  0.48302  0.27782  0.25849  1.0000
  O  Te138     1.0  0.52417  0.12513  0.35987  1.0000
  O  Te139     1.0  0.58195  0.28191  0.37569  1.0000
  O  Te140     1.0  0.54078  0.43462  0.27428  1.0000
  Mg  Mg69      1.0  0.56478  0.16006  0.39667  1.0000
  Mg  Mg70      1.0  0.50019  0.39983  0.23748  1.0000
  C  Sn141     1.0  0.52018  0.73064  0.29004  1.0000
  C   C167      1.0  0.50809  0.71076  0.30967  1.0000
  C  Sn142     1.0  0.52595  0.66619  0.33858  1.0000
  C  Sn143     1.0  0.55654  0.64104  0.34808  1.0000
  C   C168      1.0  0.56862  0.66094  0.32846  1.0000
  C  Sn144     1.0  0.55077  0.70549  0.29954  1.0000
  O  Te141     1.0  0.50191  0.77525  0.26125  1.0000
  O  Te142     1.0  0.51336  0.64700  0.35780  1.0000
  O  Te143     1.0  0.57481  0.59639  0.37690  1.0000
  O  Te144     1.0  0.56335  0.72470  0.28033  1.0000
  Mg  Mg71      1.0  0.54735  0.58520  0.39487  1.0000
  Mg  Mg72      1.0  0.52938  0.78657  0.24327  1.0000
