data_image0
_chemical_formula_structural       H228C236N12SnCSn2CSnTe4Mg2SnCSn2CSnTe4Mg2SnCSn2CSnTe4Mg2SnCSn2CSnTe4Mg2SnCSn2CSnTe4Mg2SnCSn2CSnTe4Mg2SnCSn2CSnTe4Mg2SnCSn2CSnTe4Mg2SnCSn2CSnTe4Mg2SnCSn2CSnTe4Mg2SnCSn2CSnTe4Mg2SnCSn2CSnTe4Mg2
_chemical_formula_sum              "H228 C260 N12 Sn48 Te48 Mg24"
_cell_length_a       32.0506
_cell_length_b       32.103
_cell_length_c       13.8842
_cell_angle_alpha    90.0419
_cell_angle_beta     89.956
_cell_angle_gamma    120.155

_symmetry_space_group_name_H-M    'P1'
_space_group_IT_number       1

loop_
  _space_group_symop_operation_xyz
  'x, y, z'

loop_
  _atom_site_type_symbol
  _atom_site_label
  _atom_site_symmetry_multiplicity
  _atom_site_fract_x
  _atom_site_fract_y
  _atom_site_fract_z
  _atom_site_occupancy
  H   H1        1.0  0.03484  0.87018  0.26280  1.0000
  H   H2        1.0  0.12988  0.16662  0.25599  1.0000
  H   H3        1.0  0.83195  0.96589  0.25072  1.0000
  H   H4        1.0  0.04985  0.95655  0.23568  1.0000
  H   H5        1.0  0.04498  0.09562  0.23136  1.0000
  H   H6        1.0  0.90609  0.95140  0.23442  1.0000
  H   H7        1.0  0.27925  0.70991  0.74177  1.0000
  H   H8        1.0  0.28746  0.56884  0.73868  1.0000
  H   H9        1.0  0.43053  0.72000  0.73851  1.0000
  H   H10       1.0  0.19756  0.85682  0.85605  1.0000
  H   H11       1.0  0.13323  0.33672  0.83691  1.0000
  H   H12       1.0  0.65358  0.80339  0.87403  1.0000
  H   H13       1.0  0.66396  0.77506  0.17588  1.0000
  H   H14       1.0  0.21922  0.88131  0.17069  1.0000
  H   H15       1.0  0.11804  0.33931  0.16353  1.0000
  H   H16       1.0  0.70795  0.91649  0.35069  1.0000
  H   H17       1.0  0.08825  0.80352  0.38595  1.0000
  H   H18       1.0  0.19995  0.28863  0.37163  1.0000
  H   H19       1.0  0.75915  0.00285  0.39550  1.0000
  H   H20       1.0  0.99178  0.78668  0.30473  1.0000
  H   H21       1.0  0.20462  0.19879  0.31131  1.0000
  H   H22       1.0  0.76062  0.99541  0.26875  1.0000
  H   H23       1.0  0.00070  0.74654  0.37795  1.0000
  H   H24       1.0  0.24561  0.24451  0.38978  1.0000
  H   H25       1.0  0.81026  0.00541  0.34173  1.0000
  H   H26       1.0  0.02499  0.76032  0.25920  1.0000
  H   H27       1.0  0.24119  0.25825  0.26729  1.0000
  H   H28       1.0  0.79885  0.93633  0.46207  1.0000
  H   H29       1.0  0.03422  0.85749  0.43443  1.0000
  H   H30       1.0  0.13567  0.18466  0.44264  1.0000
  H   H31       1.0  0.74230  0.88220  0.46682  1.0000
  H   H32       1.0  0.09018  0.86909  0.48312  1.0000
  H   H33       1.0  0.12903  0.23468  0.47292  1.0000
  H   H34       1.0  0.74778  0.93663  0.51140  1.0000
  H   H35       1.0  0.03668  0.81383  0.50879  1.0000
  H   H36       1.0  0.18101  0.23296  0.51120  1.0000
  H   H37       1.0  0.68287  0.70966  0.15779  1.0000
  H   H38       1.0  0.28746  0.96561  0.14838  1.0000
  H   H39       1.0  0.03599  0.32274  0.12390  1.0000
  H   H40       1.0  0.71508  0.74662  0.25778  1.0000
  H   H41       1.0  0.25435  0.96096  0.25476  1.0000
  H   H42       1.0  0.03321  0.28853  0.22717  1.0000
  H   H43       1.0  0.74548  0.75236  0.14773  1.0000
  H   H44       1.0  0.24599  0.98707  0.14966  1.0000
  H   H45       1.0  0.01513  0.26014  0.11314  1.0000
  H   H46       1.0  0.72538  0.78819  0.99642  1.0000
  H   H47       1.0  0.20686  0.93249  0.99555  1.0000
  H   H48       1.0  0.08060  0.27866  0.97957  1.0000
  H   H49       1.0  0.68614  0.81130  0.01091  1.0000
  H   H50       1.0  0.18340  0.86987  0.00631  1.0000
  H   H51       1.0  0.14131  0.32176  0.00480  1.0000
  H   H52       1.0  0.66269  0.74773  0.01142  1.0000
  H   H53       1.0  0.24711  0.91009  0.00647  1.0000
  H   H54       1.0  0.09758  0.34021  0.99221  1.0000
  H   H55       1.0  0.12097  0.95150  0.84658  1.0000
  H   H56       1.0  0.04466  0.16404  0.83879  1.0000
  H   H57       1.0  0.83197  0.87345  0.84801  1.0000
  H   H58       1.0  0.15682  0.94396  0.07564  1.0000
  H   H59       1.0  0.05602  0.21352  0.06750  1.0000
  H   H60       1.0  0.78984  0.83985  0.08004  1.0000
  H   H61       1.0  0.04083  0.83501  0.04252  1.0000
  H   H62       1.0  0.16353  0.20941  0.03265  1.0000
  H   H63       1.0  0.79366  0.95561  0.03367  1.0000
  H   H64       1.0  0.04077  0.94649  0.87907  1.0000
  H   H65       1.0  0.05205  0.09198  0.87494  1.0000
  H   H66       1.0  0.90730  0.95584  0.87720  1.0000
  H   H67       1.0  0.28925  0.71581  0.38408  1.0000
  H   H68       1.0  0.28441  0.57636  0.38101  1.0000
  H   H69       1.0  0.42404  0.70609  0.38174  1.0000
  H   H70       1.0  0.22087  0.89266  0.34354  1.0000
  H   H71       1.0  0.10649  0.32852  0.33448  1.0000
  H   H72       1.0  0.67612  0.78123  0.35208  1.0000
  H   H73       1.0  0.72083  0.83042  0.69561  1.0000
  H   H74       1.0  0.16136  0.88085  0.69713  1.0000
  H   H75       1.0  0.11064  0.27293  0.68146  1.0000
  H   H76       1.0  0.68278  0.92532  0.89102  1.0000
  H   H77       1.0  0.06920  0.75136  0.90838  1.0000
  H   H78       1.0  0.23186  0.33175  0.93066  1.0000
  H   H79       1.0  0.65539  0.86381  0.02157  1.0000
  H   H80       1.0  0.13165  0.78860  0.03470  1.0000
  H   H81       1.0  0.20892  0.30165  0.10059  1.0000
  H   H82       1.0  0.65004  0.91370  0.05976  1.0000
  H   H83       1.0  0.08155  0.73563  0.08148  1.0000
  H   H84       1.0  0.27130  0.32457  0.07646  1.0000
  H   H85       1.0  0.69871  0.90670  0.10152  1.0000
  H   H86       1.0  0.09064  0.79332  0.11331  1.0000
  H   H87       1.0  0.23123  0.26173  0.08263  1.0000
  H   H88       1.0  0.75522  0.00806  0.91518  1.0000
  H   H89       1.0  0.98634  0.74086  0.93066  1.0000
  H   H90       1.0  0.25833  0.29210  0.81342  1.0000
  H   H91       1.0  0.75545  0.99557  0.03954  1.0000
  H   H92       1.0  0.99937  0.75686  0.05389  1.0000
  H   H93       1.0  0.25612  0.25151  0.90307  1.0000
  H   H94       1.0  0.70579  0.99770  0.98997  1.0000
  H   H95       1.0  0.99758  0.70426  0.01048  1.0000
  H   H96       1.0  0.29939  0.31391  0.91194  1.0000
  H   H97       1.0  0.78547  0.83504  0.59137  1.0000
  H   H98       1.0  0.15449  0.93877  0.59106  1.0000
  H   H99       1.0  0.09661  0.19218  0.62957  1.0000
  H   H100      1.0  0.82838  0.86182  0.68503  1.0000
  H   H101      1.0  0.12947  0.95631  0.68556  1.0000
  H   H102      1.0  0.05240  0.20427  0.58141  1.0000
  H   H103      1.0  0.80181  0.89362  0.63373  1.0000
  H   H104      1.0  0.09675  0.89699  0.63878  1.0000
  H   H105      1.0  0.03781  0.16427  0.67971  1.0000
  H   H106      1.0  0.77610  0.78801  0.79787  1.0000
  H   H107      1.0  0.20573  0.98058  0.79187  1.0000
  H   H108      1.0  0.01213  0.21709  0.78187  1.0000
  H   H109      1.0  0.73628  0.76143  0.69910  1.0000
  H   H110      1.0  0.23023  0.96557  0.69205  1.0000
  H   H111      1.0  0.02496  0.25410  0.67863  1.0000
  H   H112      1.0  0.71380  0.76772  0.81219  1.0000
  H   H113      1.0  0.22678  0.93944  0.80694  1.0000
  H   H114      1.0  0.05236  0.27993  0.79107  1.0000
  H   H115      1.0  0.38800  0.51242  0.89597  1.0000
  H   H116      1.0  0.49031  0.87616  0.89168  1.0000
  H   H117      1.0  0.12715  0.61661  0.89998  1.0000
  H   H118      1.0  0.38038  0.62232  0.05284  1.0000
  H   H119      1.0  0.38027  0.76032  0.05100  1.0000
  H   H120      1.0  0.24313  0.62311  0.05507  1.0000
  H   H121      1.0  0.62435  0.38451  0.54939  1.0000
  H   H122      1.0  0.61615  0.24035  0.54511  1.0000
  H   H123      1.0  0.75835  0.37240  0.54795  1.0000
  H   H124      1.0  0.53557  0.50790  0.73348  1.0000
  H   H125      1.0  0.49830  0.02812  0.72510  1.0000
  H   H126      1.0  0.96834  0.46095  0.73709  1.0000
  H   H127      1.0  0.05253  0.48857  0.23664  1.0000
  H   H128      1.0  0.51866  0.57325  0.22992  1.0000
  H   H129      1.0  0.43286  0.94865  0.22563  1.0000
  H   H130      1.0  0.00520  0.56981  0.00869  1.0000
  H   H131      1.0  0.44356  0.44453  0.99929  1.0000
  H   H132      1.0  0.56029  0.00040  0.99270  1.0000
  H   H133      1.0  0.01328  0.54356  0.84230  1.0000
  H   H134      1.0  0.45100  0.47325  0.82633  1.0000
  H   H135      1.0  0.59203  0.99555  0.82919  1.0000
  H   H136      1.0  0.06160  0.60196  0.81729  1.0000
  H   H137      1.0  0.38833  0.45210  0.82486  1.0000
  H   H138      1.0  0.53257  0.98672  0.82303  1.0000
  H   H139      1.0  0.00319  0.59324  0.83818  1.0000
  H   H140      1.0  0.40878  0.41068  0.84066  1.0000
  H   H141      1.0  0.54180  0.93710  0.81273  1.0000
  H   H142      1.0  0.09489  0.66697  0.95794  1.0000
  H   H143      1.0  0.33971  0.42524  0.98576  1.0000
  H   H144      1.0  0.57554  0.91363  0.97206  1.0000
  H   H145      1.0  0.06616  0.65040  0.07205  1.0000
  H   H146      1.0  0.36854  0.42247  0.09269  1.0000
  H   H147      1.0  0.58416  0.94789  0.07824  1.0000
  H   H148      1.0  0.03546  0.65672  0.97132  1.0000
  H   H149      1.0  0.35671  0.38077  0.99770  1.0000
  H   H150      1.0  0.62227  0.97478  0.97657  1.0000
  H   H151      1.0  0.16238  0.53567  0.25704  1.0000
  H   H152      1.0  0.47131  0.63541  0.25031  1.0000
  H   H153      1.0  0.37279  0.83883  0.24623  1.0000
  H   H154      1.0  0.11896  0.50421  0.34770  1.0000
  H   H155      1.0  0.50193  0.62247  0.34069  1.0000
  H   H156      1.0  0.38224  0.88147  0.33682  1.0000
  H   H157      1.0  0.12644  0.55921  0.30155  1.0000
  H   H158      1.0  0.44657  0.57558  0.29334  1.0000
  H   H159      1.0  0.43170  0.87658  0.29258  1.0000
  H   H160      1.0  0.05726  0.42753  0.13044  1.0000
  H   H161      1.0  0.57672  0.63778  0.11670  1.0000
  H   H162      1.0  0.33173  0.87765  0.14845  1.0000
  H   H163      1.0  0.07999  0.42850  0.24796  1.0000
  H   H164      1.0  0.57815  0.66161  0.23353  1.0000
  H   H165      1.0  0.36593  0.93826  0.10987  1.0000
  H   H166      1.0  0.12028  0.45642  0.15046  1.0000
  H   H167      1.0  0.54726  0.67110  0.13784  1.0000
  H   H168      1.0  0.34741  0.92483  0.23240  1.0000
  H   H169      1.0  0.49902  0.62126  0.85890  1.0000
  H   H170      1.0  0.38199  0.87929  0.85175  1.0000
  H   H171      1.0  0.12043  0.50135  0.87029  1.0000
  H   H172      1.0  0.46384  0.63199  0.08761  1.0000
  H   H173      1.0  0.37119  0.83447  0.08345  1.0000
  H   H174      1.0  0.16641  0.53828  0.09345  1.0000
  H   H175      1.0  0.38023  0.54995  0.66441  1.0000
  H   H176      1.0  0.45465  0.83076  0.66304  1.0000
  H   H177      1.0  0.16791  0.61606  0.66612  1.0000
  H   H178      1.0  0.38727  0.62389  0.69544  1.0000
  H   H179      1.0  0.37659  0.76336  0.69371  1.0000
  H   H180      1.0  0.23519  0.61118  0.69834  1.0000
  H   H181      1.0  0.62678  0.38933  0.19274  1.0000
  H   H182      1.0  0.61276  0.24149  0.18846  1.0000
  H   H183      1.0  0.76032  0.37526  0.19124  1.0000
  H   H184      1.0  0.55875  0.55941  0.11439  1.0000
  H   H185      1.0  0.44456  0.00086  0.10718  1.0000
  H   H186      1.0  0.00093  0.44842  0.11402  1.0000
  H   H187      1.0  0.00405  0.42155  0.74688  1.0000
  H   H188      1.0  0.57757  0.58647  0.72582  1.0000
  H   H189      1.0  0.41871  0.99234  0.71756  1.0000
  H   H190      1.0  0.06363  0.54645  0.50574  1.0000
  H   H191      1.0  0.44786  0.51392  0.50076  1.0000
  H   H192      1.0  0.49485  0.93578  0.49963  1.0000
  H   H193      1.0  0.02777  0.58073  0.61573  1.0000
  H   H194      1.0  0.41166  0.44349  0.60794  1.0000
  H   H195      1.0  0.56235  0.96767  0.61658  1.0000
  H   H196      1.0  0.05404  0.61932  0.51472  1.0000
  H   H197      1.0  0.37279  0.43291  0.50821  1.0000
  H   H198      1.0  0.57546  0.94103  0.51728  1.0000
  H   H199      1.0  0.08415  0.63454  0.62769  1.0000
  H   H200      1.0  0.35896  0.44772  0.62273  1.0000
  H   H201      1.0  0.55611  0.90974  0.62870  1.0000
  H   H202      1.0  0.12470  0.62052  0.42586  1.0000
  H   H203      1.0  0.37593  0.50519  0.42007  1.0000
  H   H204      1.0  0.50511  0.87371  0.41931  1.0000
  H   H205      1.0  0.15367  0.59034  0.47444  1.0000
  H   H206      1.0  0.40786  0.56365  0.47214  1.0000
  H   H207      1.0  0.44558  0.84505  0.46716  1.0000
  H   H208      1.0  0.15955  0.64227  0.53210  1.0000
  H   H209      1.0  0.35436  0.51815  0.52673  1.0000
  H   H210      1.0  0.49124  0.83853  0.52509  1.0000
  H   H211      1.0  0.07063  0.40284  0.75003  1.0000
  H   H212      1.0  0.58839  0.66999  0.72296  1.0000
  H   H213      1.0  0.33423  0.91911  0.71656  1.0000
  H   H214      1.0  0.02752  0.37245  0.84283  1.0000
  H   H215      1.0  0.62781  0.66429  0.80538  1.0000
  H   H216      1.0  0.34118  0.96617  0.79469  1.0000
  H   H217      1.0  0.08390  0.42328  0.87128  1.0000
  H   H218      1.0  0.57645  0.66554  0.84830  1.0000
  H   H219      1.0  0.33903  0.91417  0.84267  1.0000
  H   H220      1.0  0.98506  0.41029  0.92427  1.0000
  H   H221      1.0  0.59891  0.58760  0.90092  1.0000
  H   H222      1.0  0.41759  0.01276  0.89314  1.0000
  H   H223      1.0  0.99220  0.46612  0.88428  1.0000
  H   H224      1.0  0.54372  0.53437  0.87298  1.0000
  H   H225      1.0  0.47075  0.01097  0.86455  1.0000
  H   H226      1.0  0.03934  0.46541  0.94791  1.0000
  H   H227      1.0  0.54258  0.58198  0.93407  1.0000
  H   H228      1.0  0.42312  0.96209  0.92572  1.0000
  C   C1        1.0  0.09188  0.85455  0.28521  1.0000
  C   C2        1.0  0.14603  0.23957  0.27716  1.0000
  C   C3        1.0  0.75985  0.90730  0.27606  1.0000
  C   C4        1.0  0.07072  0.87825  0.24038  1.0000
  C   C5        1.0  0.12219  0.19447  0.23285  1.0000
  C   C6        1.0  0.80514  0.92902  0.23213  1.0000
  C   C7        1.0  0.02512  0.97583  0.11026  1.0000
  C   C8        1.0  0.02533  0.04985  0.10822  1.0000
  C   C9        1.0  0.95109  0.97576  0.10965  1.0000
  C   C10       1.0  0.04747  0.95421  0.15752  1.0000
  C   C11       1.0  0.04674  0.09451  0.15324  1.0000
  C   C12       1.0  0.90671  0.95290  0.15613  1.0000
  C   C13       1.0  0.06816  0.93048  0.10830  1.0000
  C   C14       1.0  0.06963  0.13847  0.10211  1.0000
  C   C15       1.0  0.86241  0.93080  0.10596  1.0000
  C   C16       1.0  0.13816  0.86419  0.25487  1.0000
  C   C17       1.0  0.13646  0.27598  0.24557  1.0000
  C   C18       1.0  0.72482  0.85957  0.24933  1.0000
  C   C19       1.0  0.30551  0.69036  0.61600  1.0000
  C   C20       1.0  0.30890  0.61579  0.61457  1.0000
  C   C21       1.0  0.38397  0.69390  0.61439  1.0000
  C   C22       1.0  0.28211  0.71091  0.66381  1.0000
  C   C23       1.0  0.28729  0.57135  0.66074  1.0000
  C   C24       1.0  0.42839  0.71640  0.66070  1.0000
  C   C25       1.0  0.26149  0.73370  0.61239  1.0000
  C   C26       1.0  0.26411  0.52835  0.60748  1.0000
  C   C27       1.0  0.47172  0.73507  0.60860  1.0000
  C   C28       1.0  0.17214  0.82506  0.81397  1.0000
  C   C29       1.0  0.16563  0.34404  0.79609  1.0000
  C   C30       1.0  0.65122  0.82567  0.81652  1.0000
  C   C31       1.0  0.69893  0.78411  0.14464  1.0000
  C   C32       1.0  0.21176  0.90867  0.14167  1.0000
  C   C33       1.0  0.09331  0.30487  0.12890  1.0000
  C   C34       1.0  0.74736  0.93248  0.35384  1.0000
  C   C35       1.0  0.06496  0.81773  0.36373  1.0000
  C   C36       1.0  0.18170  0.24969  0.35827  1.0000
  C   C37       1.0  0.77071  0.98704  0.33865  1.0000
  C   C38       1.0  0.01783  0.77536  0.32410  1.0000
  C   C39       1.0  0.22043  0.23703  0.32990  1.0000
  C   C40       1.0  0.75973  0.92119  0.45441  1.0000
  C   C41       1.0  0.05597  0.84088  0.45252  1.0000
  C   C42       1.0  0.15533  0.22400  0.45161  1.0000
  C   C43       1.0  0.71126  0.74597  0.17907  1.0000
  C   C44       1.0  0.25226  0.95838  0.17582  1.0000
  C   C45       1.0  0.04143  0.29345  0.14978  1.0000
  C   C46       1.0  0.69296  0.78265  0.03451  1.0000
  C   C47       1.0  0.21229  0.90508  0.03119  1.0000
  C   C48       1.0  0.10382  0.31176  0.02014  1.0000
  C   C49       1.0  0.81764  0.91587  0.94807  1.0000
  C   C50       1.0  0.07994  0.89708  0.95181  1.0000
  C   C51       1.0  0.10061  0.18186  0.94287  1.0000
  C   C52       1.0  0.10944  0.91496  0.87031  1.0000
  C   C53       1.0  0.08110  0.19071  0.86067  1.0000
  C   C54       1.0  0.80678  0.88529  0.86855  1.0000
  C   C55       1.0  0.12575  0.88791  0.82028  1.0000
  C   C56       1.0  0.10628  0.23357  0.80788  1.0000
  C   C57       1.0  0.76388  0.86845  0.81640  1.0000
  C   C58       1.0  0.81630  0.90548  0.16016  1.0000
  C   C59       1.0  0.09324  0.90994  0.16332  1.0000
  C   C60       1.0  0.09029  0.18466  0.15579  1.0000
  C   C61       1.0  0.13930  0.91953  0.13560  1.0000
  C   C62       1.0  0.08073  0.22091  0.12719  1.0000
  C   C63       1.0  0.78143  0.85817  0.13611  1.0000
  C   C64       1.0  0.16269  0.89774  0.17958  1.0000
  C   C65       1.0  0.10306  0.26654  0.16982  1.0000
  C   C66       1.0  0.73584  0.83435  0.17918  1.0000
  C   C67       1.0  0.07860  0.82075  0.93189  1.0000
  C   C68       1.0  0.17458  0.25930  0.91950  1.0000
  C   C69       1.0  0.74219  0.91603  0.92275  1.0000
  C   C70       1.0  0.06430  0.84952  0.98013  1.0000
  C   C71       1.0  0.14788  0.21632  0.96960  1.0000
  C   C72       1.0  0.78509  0.93128  0.97291  1.0000
  C   C73       1.0  0.02433  0.97453  0.00337  1.0000
  C   C74       1.0  0.02573  0.04899  0.00136  1.0000
  C   C75       1.0  0.95118  0.97553  0.00270  1.0000
  C   C76       1.0  0.04343  0.94959  0.95708  1.0000
  C   C77       1.0  0.04978  0.09258  0.95302  1.0000
  C   C78       1.0  0.90719  0.95445  0.95542  1.0000
  C   C79       1.0  0.06465  0.92671  0.00703  1.0000
  C   C80       1.0  0.07262  0.13745  0.00074  1.0000
  C   C81       1.0  0.86264  0.93291  0.00448  1.0000
  C   C82       1.0  0.11120  0.84086  0.85374  1.0000
  C   C83       1.0  0.15281  0.26859  0.83963  1.0000
  C   C84       1.0  0.73107  0.88323  0.84574  1.0000
  C   C85       1.0  0.30673  0.69119  0.51404  1.0000
  C   C86       1.0  0.30843  0.61680  0.51262  1.0000
  C   C87       1.0  0.38314  0.69245  0.51243  1.0000
  C   C88       1.0  0.28655  0.71388  0.46224  1.0000
  C   C89       1.0  0.28566  0.57444  0.45906  1.0000
  C   C90       1.0  0.42572  0.71000  0.45972  1.0000
  C   C91       1.0  0.26464  0.73623  0.51095  1.0000
  C   C92       1.0  0.26252  0.52969  0.50598  1.0000
  C   C93       1.0  0.47045  0.73036  0.50708  1.0000
  C   C94       1.0  0.19719  0.85357  0.33397  1.0000
  C   C95       1.0  0.14575  0.34491  0.32516  1.0000
  C   C96       1.0  0.65715  0.80079  0.33387  1.0000
  C   C97       1.0  0.75364  0.83522  0.73049  1.0000
  C   C98       1.0  0.15725  0.90937  0.73132  1.0000
  C   C99       1.0  0.08309  0.24055  0.71840  1.0000
  C   C100      1.0  0.70694  0.93229  0.95265  1.0000
  C   C101      1.0  0.06252  0.77013  0.96737  1.0000
  C   C102      1.0  0.22584  0.29595  0.94964  1.0000
  C   C103      1.0  0.67596  0.90242  0.03883  1.0000
  C   C104      1.0  0.09335  0.77200  0.05428  1.0000
  C   C105      1.0  0.23461  0.29586  0.05843  1.0000
  C   C106      1.0  0.73242  0.98649  0.97544  1.0000
  C   C107      1.0  0.00840  0.74161  0.99185  1.0000
  C   C108      1.0  0.26212  0.28791  0.89088  1.0000
  C   C109      1.0  0.79472  0.85781  0.65590  1.0000
  C   C110      1.0  0.13301  0.92627  0.65749  1.0000
  C   C111      1.0  0.06657  0.19788  0.64834  1.0000
  C   C112      1.0  0.74427  0.78518  0.76178  1.0000
  C   C113      1.0  0.20797  0.95102  0.75709  1.0000
  C   C114      1.0  0.04080  0.24849  0.74399  1.0000
  C   C115      1.0  0.43292  0.50451  0.99982  1.0000
  C   C116      1.0  0.49907  0.93013  0.99360  1.0000
  C   C117      1.0  0.07319  0.57348  0.00388  1.0000
  C   C118      1.0  0.41314  0.52932  0.95522  1.0000
  C   C119      1.0  0.47376  0.88510  0.95047  1.0000
  C   C120      1.0  0.11786  0.59149  0.95956  1.0000
  C   C121      1.0  0.36074  0.64407  0.92219  1.0000
  C   C122      1.0  0.35757  0.71794  0.92133  1.0000
  C   C123      1.0  0.28361  0.64077  0.92337  1.0000
  C   C124      1.0  0.38276  0.62347  0.97463  1.0000
  C   C125      1.0  0.37884  0.76095  0.97275  1.0000
  C   C126      1.0  0.24123  0.61950  0.97707  1.0000
  C   C127      1.0  0.40622  0.60221  0.92729  1.0000
  C   C128      1.0  0.40026  0.80541  0.92428  1.0000
  C   C129      1.0  0.19606  0.59516  0.93127  1.0000
  C   C130      1.0  0.46747  0.52772  0.07447  1.0000
  C   C131      1.0  0.47645  0.94201  0.06839  1.0000
  C   C132      1.0  0.06040  0.53897  0.07884  1.0000
  C   C133      1.0  0.64489  0.36185  0.42331  1.0000
  C   C134      1.0  0.63811  0.28481  0.42096  1.0000
  C   C135      1.0  0.71511  0.35476  0.42238  1.0000
  C   C136      1.0  0.62585  0.38639  0.47122  1.0000
  C   C137      1.0  0.61450  0.24064  0.46697  1.0000
  C   C138      1.0  0.75875  0.37223  0.46971  1.0000
  C   C139      1.0  0.60725  0.41249  0.42338  1.0000
  C   C140      1.0  0.58936  0.19625  0.41728  1.0000
  C   C141      1.0  0.80350  0.39090  0.42140  1.0000
  C   C142      1.0  0.52978  0.50748  0.65541  1.0000
  C   C143      1.0  0.49744  0.02259  0.64685  1.0000
  C   C144      1.0  0.97490  0.46591  0.65911  1.0000
  C   C145      1.0  0.08739  0.49737  0.20509  1.0000
  C   C146      1.0  0.50864  0.59809  0.19742  1.0000
  C   C147      1.0  0.40741  0.91353  0.19437  1.0000
  C   C148      1.0  0.03925  0.59057  0.96935  1.0000
  C   C149      1.0  0.41727  0.45324  0.96914  1.0000
  C   C150      1.0  0.55016  0.96543  0.96035  1.0000
  C   C151      1.0  0.02873  0.58178  0.86072  1.0000
  C   C152      1.0  0.41639  0.44711  0.85913  1.0000
  C   C153      1.0  0.55427  0.97150  0.85018  1.0000
  C   C154      1.0  0.06017  0.64425  0.99420  1.0000
  C   C155      1.0  0.36770  0.41840  0.01408  1.0000
  C   C156      1.0  0.58505  0.94949  0.99919  1.0000
  C   C157      1.0  0.12609  0.52589  0.28207  1.0000
  C   C158      1.0  0.48040  0.60841  0.27469  1.0000
  C   C159      1.0  0.39806  0.87539  0.27184  1.0000
  C   C160      1.0  0.08598  0.44969  0.18199  1.0000
  C   C161      1.0  0.55546  0.64472  0.16984  1.0000
  C   C162      1.0  0.36054  0.91372  0.16984  1.0000
  C   C163      1.0  0.14883  0.56231  0.77577  1.0000
  C   C164      1.0  0.43599  0.58609  0.77001  1.0000
  C   C165      1.0  0.41727  0.85064  0.76561  1.0000
  C   C166      1.0  0.48270  0.59776  0.79711  1.0000
  C   C167      1.0  0.40574  0.88592  0.79056  1.0000
  C   C168      1.0  0.11340  0.51632  0.80622  1.0000
  C   C169      1.0  0.50867  0.57999  0.74856  1.0000
  C   C170      1.0  0.42419  0.92952  0.74117  1.0000
  C   C171      1.0  0.06917  0.48960  0.75895  1.0000
  C   C172      1.0  0.15109  0.57763  0.98782  1.0000
  C   C173      1.0  0.42535  0.57614  0.98305  1.0000
  C   C174      1.0  0.42683  0.85091  0.97902  1.0000
  C   C175      1.0  0.45570  0.59651  0.06264  1.0000
  C   C176      1.0  0.40691  0.86150  0.05845  1.0000
  C   C177      1.0  0.13996  0.54760  0.06823  1.0000
  C   C178      1.0  0.47731  0.57345  0.10955  1.0000
  C   C179      1.0  0.43078  0.90632  0.10502  1.0000
  C   C180      1.0  0.09524  0.52784  0.11524  1.0000
  C   C181      1.0  0.44043  0.53980  0.63522  1.0000
  C   C182      1.0  0.46520  0.90099  0.63135  1.0000
  C   C183      1.0  0.09731  0.55538  0.64026  1.0000
  C   C184      1.0  0.41604  0.55812  0.68715  1.0000
  C   C185      1.0  0.44612  0.85834  0.68402  1.0000
  C   C186      1.0  0.14037  0.58067  0.69113  1.0000
  C   C187      1.0  0.36083  0.64354  0.82009  1.0000
  C   C188      1.0  0.35713  0.71798  0.81930  1.0000
  C   C189      1.0  0.28228  0.63937  0.82134  1.0000
  C   C190      1.0  0.38505  0.62362  0.77345  1.0000
  C   C191      1.0  0.37744  0.76192  0.77168  1.0000
  C   C192      1.0  0.23765  0.61423  0.77625  1.0000
  C   C193      1.0  0.40860  0.60380  0.82534  1.0000
  C   C194      1.0  0.39851  0.80572  0.82233  1.0000
  C   C195      1.0  0.19447  0.59094  0.82951  1.0000
  C   C196      1.0  0.48607  0.54842  0.66907  1.0000
  C   C197      1.0  0.45614  0.93804  0.66262  1.0000
  C   C198      1.0  0.06015  0.51024  0.67637  1.0000
  C   C199      1.0  0.64496  0.36241  0.31651  1.0000
  C   C200      1.0  0.63824  0.28545  0.31410  1.0000
  C   C201      1.0  0.71532  0.35576  0.31558  1.0000
  C   C202      1.0  0.62636  0.38803  0.27100  1.0000
  C   C203      1.0  0.61357  0.24154  0.26674  1.0000
  C   C204      1.0  0.75955  0.37455  0.26954  1.0000
  C   C205      1.0  0.60807  0.41344  0.32176  1.0000
  C   C206      1.0  0.58865  0.19717  0.31571  1.0000
  C   C207      1.0  0.80340  0.39185  0.31976  1.0000
  C   C208      1.0  0.53325  0.52121  0.12976  1.0000
  C   C209      1.0  0.48285  0.01415  0.12277  1.0000
  C   C210      1.0  0.98757  0.47324  0.13005  1.0000
  C   C211      1.0  0.03309  0.44026  0.79967  1.0000
  C   C212      1.0  0.56019  0.59705  0.78117  1.0000
  C   C213      1.0  0.40777  0.96447  0.77309  1.0000
  C   C214      1.0  0.08829  0.57706  0.55118  1.0000
  C   C215      1.0  0.41771  0.50904  0.54636  1.0000
  C   C216      1.0  0.49814  0.90976  0.54569  1.0000
  C   C217      1.0  0.06196  0.60448  0.57882  1.0000
  C   C218      1.0  0.38854  0.45513  0.57284  1.0000
  C   C219      1.0  0.55119  0.93356  0.57895  1.0000
  C   C220      1.0  0.13425  0.60931  0.49314  1.0000
  C   C221      1.0  0.38725  0.52496  0.48856  1.0000
  C   C222      1.0  0.48403  0.86409  0.48636  1.0000
  C   C223      1.0  0.05529  0.40802  0.81658  1.0000
  C   C224      1.0  0.58985  0.65240  0.78964  1.0000
  C   C225      1.0  0.35238  0.93943  0.78184  1.0000
  C   C226      1.0  0.01094  0.44567  0.89418  1.0000
  C   C227      1.0  0.56148  0.57383  0.87758  1.0000
  C   C228      1.0  0.43124  0.98915  0.86937  1.0000
  C   C229      1.0  0.33271  0.66712  0.47630  1.0000
  C   C230      1.0  0.33294  0.66675  0.66163  1.0000
  C   C231      1.0  0.33318  0.66680  0.77369  1.0000
  C   C232      1.0  0.33418  0.66780  0.95813  1.0000
  C   C233      1.0  0.00044  0.99956  0.96347  1.0000
  C   C234      1.0  0.00059  0.00077  0.14847  1.0000
  C   C235      1.0  0.66619  0.33486  0.27622  1.0000
  C   C236      1.0  0.66590  0.33367  0.46128  1.0000
  N   N1        1.0  0.15526  0.83541  0.29481  1.0000
  N   N2        1.0  0.16470  0.32198  0.28577  1.0000
  N   N3        1.0  0.67818  0.84092  0.28736  1.0000
  N   N4        1.0  0.12705  0.81187  0.80870  1.0000
  N   N5        1.0  0.18001  0.31312  0.79203  1.0000
  N   N6        1.0  0.68732  0.86717  0.79516  1.0000
  N   N7        1.0  0.48772  0.50140  0.11262  1.0000
  N   N8        1.0  0.50304  0.98891  0.10543  1.0000
  N   N9        1.0  0.01327  0.51895  0.11500  1.0000
  N   N10       1.0  0.50613  0.52574  0.61615  1.0000
  N   N11       1.0  0.47847  0.98044  0.60819  1.0000
  N   N12       1.0  0.01755  0.48907  0.62223  1.0000
  C  Sn1       1.0  0.20843  0.74927  0.36405  1.0000
  C   C237      1.0  0.24911  0.76403  0.42203  1.0000
  C  Sn2       1.0  0.27224  0.80987  0.46355  1.0000
  C  Sn3       1.0  0.25432  0.84162  0.44683  1.0000
  C   C238      1.0  0.21365  0.82685  0.38889  1.0000
  C  Sn4       1.0  0.19051  0.78101  0.34732  1.0000
  O  Te1       1.0  0.18588  0.70327  0.32328  1.0000
  O  Te2       1.0  0.31286  0.82382  0.52123  1.0000
  O  Te3       1.0  0.27690  0.88764  0.48766  1.0000
  O  Te4       1.0  0.14990  0.76706  0.28969  1.0000
  Mg  Mg1       1.0  0.33105  0.89008  0.56087  1.0000
  Mg  Mg2       1.0  0.13167  0.70081  0.25006  1.0000
  C  Sn5       1.0  0.25014  0.46077  0.35873  1.0000
  C   C239      1.0  0.23528  0.48640  0.41712  1.0000
  C  Sn6       1.0  0.18898  0.46355  0.45689  1.0000
  C  Sn7       1.0  0.15685  0.41403  0.43795  1.0000
  C   C240      1.0  0.17171  0.38842  0.37960  1.0000
  C  Sn8       1.0  0.21801  0.41125  0.33979  1.0000
  O  Te5       1.0  0.29660  0.48435  0.31973  1.0000
  O  Te6       1.0  0.17494  0.48993  0.51502  1.0000
  O  Te7       1.0  0.11036  0.39046  0.47701  1.0000
  O  Te8       1.0  0.23205  0.38490  0.28170  1.0000
  Mg  Mg3       1.0  0.10799  0.44177  0.55168  1.0000
  Mg  Mg4       1.0  0.29900  0.43301  0.24505  1.0000
  C  Sn9       1.0  0.57317  0.80636  0.36540  1.0000
  C   C241      1.0  0.60646  0.79127  0.38303  1.0000
  C  Sn10      1.0  0.59214  0.74768  0.43010  1.0000
  C  Sn11      1.0  0.54353  0.71856  0.46012  1.0000
  C   C242      1.0  0.51027  0.73365  0.44248  1.0000
  C  Sn12      1.0  0.52456  0.77724  0.39543  1.0000
  O  Te9       1.0  0.58828  0.85007  0.31822  1.0000
  O  Te10      1.0  0.62608  0.73336  0.44694  1.0000
  O  Te11      1.0  0.52844  0.67482  0.50733  1.0000
  O  Te12      1.0  0.49065  0.79156  0.37857  1.0000
  Mg  Mg5       1.0  0.58802  0.67083  0.51378  1.0000
  Mg  Mg6       1.0  0.52866  0.85406  0.31169  1.0000
  C  Sn13      1.0  0.16400  0.74579  0.70516  1.0000
  C   C243      1.0  0.18461  0.78269  0.77351  1.0000
  C  Sn14      1.0  0.23469  0.80995  0.78381  1.0000
  C  Sn15      1.0  0.26480  0.80015  0.72452  1.0000
  C   C244      1.0  0.24420  0.76328  0.65621  1.0000
  C  Sn16      1.0  0.19412  0.73599  0.64587  1.0000
  O  Te13      1.0  0.11385  0.71900  0.69611  1.0000
  O  Te14      1.0  0.25445  0.84664  0.85266  1.0000
  O  Te15      1.0  0.31499  0.82698  0.73363  1.0000
  O  Te16      1.0  0.17436  0.69933  0.57706  1.0000
  Mg  Mg7       1.0  0.32478  0.87319  0.83772  1.0000
  Mg  Mg8       1.0  0.10404  0.67277  0.59190  1.0000
  C  Sn17      1.0  0.20430  0.46737  0.75858  1.0000
  C   C245      1.0  0.24262  0.48432  0.69332  1.0000
  C  Sn18      1.0  0.25378  0.45231  0.64781  1.0000
  C  Sn19      1.0  0.22604  0.40230  0.66790  1.0000
  C   C246      1.0  0.18774  0.38537  0.73310  1.0000
  C  Sn20      1.0  0.17656  0.41736  0.77866  1.0000
  O  Te17      1.0  0.19378  0.50002  0.80323  1.0000
  O  Te18      1.0  0.29227  0.47012  0.58287  1.0000
  O  Te19      1.0  0.23659  0.36965  0.62318  1.0000
  O  Te20      1.0  0.13809  0.39958  0.84356  1.0000
  Mg  Mg9       1.0  0.29248  0.41136  0.54022  1.0000
  Mg  Mg10      1.0  0.13783  0.45830  0.88621  1.0000
  C  Sn21      1.0  0.52622  0.74618  0.77825  1.0000
  C   C247      1.0  0.51414  0.76258  0.69551  1.0000
  C  Sn22      1.0  0.55006  0.79975  0.64055  1.0000
  C  Sn23      1.0  0.59907  0.82096  0.66884  1.0000
  C   C248      1.0  0.61113  0.80455  0.75152  1.0000
  C  Sn24      1.0  0.57523  0.76738  0.80654  1.0000
  O  Te21      1.0  0.48972  0.70898  0.83211  1.0000
  O  Te22      1.0  0.53710  0.81555  0.55813  1.0000
  O  Te23      1.0  0.63557  0.85819  0.61490  1.0000
  O  Te24      1.0  0.58817  0.75158  0.88890  1.0000
  Mg  Mg11      1.0  0.59984  0.86723  0.50844  1.0000
  Mg  Mg12      1.0  0.52546  0.69989  0.93861  1.0000
  C  Sn25      1.0  0.54962  0.42078  0.17273  1.0000
  C   C249      1.0  0.59155  0.43868  0.22815  1.0000
  C  Sn26      1.0  0.61413  0.48582  0.26332  1.0000
  C  Sn27      1.0  0.59437  0.51567  0.24274  1.0000
  C   C250      1.0  0.55247  0.49777  0.18737  1.0000
  C  Sn28      1.0  0.52987  0.45063  0.15214  1.0000
  O  Te25      1.0  0.52765  0.37354  0.13831  1.0000
  O  Te26      1.0  0.65602  0.50292  0.31854  1.0000
  O  Te27      1.0  0.61638  0.56294  0.27721  1.0000
  O  Te28      1.0  0.48800  0.43353  0.09697  1.0000
  Mg  Mg13      1.0  0.67277  0.56979  0.34925  1.0000
  Mg  Mg14      1.0  0.47121  0.36666  0.06627  1.0000
  C  Sn29      1.0  0.58221  0.13199  0.16545  1.0000
  C   C251      1.0  0.56384  0.15538  0.22125  1.0000
  C  Sn30      1.0  0.51686  0.12990  0.25751  1.0000
  C  Sn31      1.0  0.48765  0.08001  0.23764  1.0000
  C   C252      1.0  0.50602  0.05664  0.18188  1.0000
  C  Sn32      1.0  0.55299  0.08209  0.14557  1.0000
  O  Te29      1.0  0.62927  0.15817  0.12994  1.0000
  O  Te30      1.0  0.49929  0.15407  0.31310  1.0000
  O  Te31      1.0  0.44055  0.05383  0.27320  1.0000
  O  Te32      1.0  0.57057  0.05795  0.09004  1.0000
  Mg  Mg15      1.0  0.43289  0.10278  0.34536  1.0000
  Mg  Mg16      1.0  0.63697  0.10920  0.05778  1.0000
  C  Sn33      1.0  0.90814  0.48001  0.19949  1.0000
  C   C253      1.0  0.93914  0.46131  0.19367  1.0000
  C  Sn34      1.0  0.92225  0.41282  0.21419  1.0000
  C  Sn35      1.0  0.87335  0.38237  0.24105  1.0000
  C   C254      1.0  0.84237  0.40106  0.24684  1.0000
  C  Sn36      1.0  0.85923  0.44955  0.22634  1.0000
  O  Te33      1.0  0.92580  0.52859  0.17865  1.0000
  O  Te34      1.0  0.95394  0.39496  0.20791  1.0000
  O  Te35      1.0  0.85571  0.33375  0.26189  1.0000
  O  Te36      1.0  0.82758  0.46741  0.23260  1.0000
  Mg  Mg17      1.0  0.91283  0.32628  0.24321  1.0000
  Mg  Mg18      1.0  0.86864  0.53608  0.19727  1.0000
  C  Sn37      1.0  0.54929  0.45614  0.44582  1.0000
  C   C255      1.0  0.58693  0.44767  0.46787  1.0000
  C  Sn38      1.0  0.60456  0.45380  0.56190  1.0000
  C  Sn39      1.0  0.58412  0.46867  0.63543  1.0000
  C   C256      1.0  0.54650  0.47712  0.61337  1.0000
  C  Sn40      1.0  0.52885  0.47101  0.51936  1.0000
  O  Te37      1.0  0.53223  0.44978  0.35133  1.0000
  O  Te38      1.0  0.64223  0.44513  0.58219  1.0000
  O  Te39      1.0  0.60122  0.47502  0.72998  1.0000
  O  Te40      1.0  0.49120  0.47966  0.49906  1.0000
  Mg  Mg19      1.0  0.65305  0.45874  0.72187  1.0000
  Mg  Mg20      1.0  0.48033  0.46604  0.35942  1.0000
  C  Sn41      1.0  0.55321  0.14781  0.59420  1.0000
  C   C257      1.0  0.57252  0.15362  0.50163  1.0000
  C  Sn42      1.0  0.56310  0.11345  0.44633  1.0000
  C  Sn43      1.0  0.53373  0.06649  0.48432  1.0000
  C   C258      1.0  0.51442  0.06070  0.57682  1.0000
  C  Sn44      1.0  0.52384  0.10085  0.63219  1.0000
  O  Te41      1.0  0.56310  0.18848  0.64821  1.0000
  O  Te42      1.0  0.58282  0.12017  0.35399  1.0000
  O  Te43      1.0  0.52384  0.02581  0.43022  1.0000
  O  Te44      1.0  0.50412  0.09415  0.72447  1.0000
  Mg  Mg21      1.0  0.55894  0.05352  0.30827  1.0000
  Mg  Mg22      1.0  0.52796  0.16077  0.77023  1.0000
  C  Sn45      1.0  0.88242  0.39167  0.60572  1.0000
  C   C259      1.0  0.92711  0.43336  0.59201  1.0000
  C  Sn46      1.0  0.93232  0.46760  0.52375  1.0000
  C  Sn47      1.0  0.89201  0.46003  0.46806  1.0000
  C   C260      1.0  0.84735  0.41837  0.48180  1.0000
  C  Sn48      1.0  0.84211  0.38410  0.55004  1.0000
  O  Te45      1.0  0.87804  0.35792  0.67438  1.0000
  O  Te46      1.0  0.97737  0.50898  0.51130  1.0000
  O  Te47      1.0  0.89643  0.49382  0.39937  1.0000
  O  Te48      1.0  0.79709  0.34274  0.56251  1.0000
  Mg  Mg23      1.0  0.96519  0.54445  0.40890  1.0000
  Mg  Mg24      1.0  0.80922  0.30727  0.66492  1.0000
