data_image0
_chemical_formula_structural       H72C90N24O24SnCSn2CSnTe4Mg2SnCSn2CSnTe4Mg2SnCSn2CSnTe4Mg2SnCSn2CSnTe4Mg2SnCSn2CSnTe4Mg2SnCSn2CSnTe4Mg2SnCSn2CSnTe4Mg2SnCSn2CSnTe4Mg2SnCSn2CSnTe4Mg2SnCSn2CSnTe4Mg2SnCSn2CSnTe4Mg2SnCSn2CSnTe4Mg2
_chemical_formula_sum              "H72 C114 N24 O24 Sn48 Te48 Mg24"
_cell_length_a       44.1066
_cell_length_b       45.1422
_cell_length_c       7.98479
_cell_angle_alpha    117.129
_cell_angle_beta     87.5592
_cell_angle_gamma    119.486

_symmetry_space_group_name_H-M    'P1'
_space_group_IT_number       1

loop_
  _space_group_symop_operation_xyz
  'x, y, z'

loop_
  _atom_site_type_symbol
  _atom_site_label
  _atom_site_symmetry_multiplicity
  _atom_site_fract_x
  _atom_site_fract_y
  _atom_site_fract_z
  _atom_site_occupancy
  H   H1        1.0  0.15689  0.37455  0.43802  1.0000
  H   H2        1.0  0.62858  0.78722  0.30258  1.0000
  H   H3        1.0  0.21489  0.85862  0.59329  1.0000
  H   H4        1.0  0.12204  0.31055  0.41725  1.0000
  H   H5        1.0  0.69197  0.81714  0.28430  1.0000
  H   H6        1.0  0.18830  0.89533  0.59131  1.0000
  H   H7        1.0  0.19103  0.28559  0.97991  1.0000
  H   H8        1.0  0.70253  0.90186  0.17159  1.0000
  H   H9        1.0  0.10303  0.79756  0.02619  1.0000
  H   H10       1.0  0.29515  0.51737  0.05328  1.0000
  H   H11       1.0  0.46119  0.73294  0.83755  1.0000
  H   H12       1.0  0.21969  0.67964  0.89583  1.0000
  H   H13       1.0  0.35318  0.61652  0.49969  1.0000
  H   H14       1.0  0.39107  0.74728  0.43517  1.0000
  H   H15       1.0  0.25198  0.65304  0.46025  1.0000
  H   H16       1.0  0.26831  0.58980  0.49741  1.0000
  H   H17       1.0  0.41959  0.69289  0.46141  1.0000
  H   H18       1.0  0.30736  0.73304  0.43309  1.0000
  H   H19       1.0  0.09587  0.11639  0.85336  1.0000
  H   H20       1.0  0.85540  0.94658  0.89628  1.0000
  H   H21       1.0  0.03944  0.88998  0.00400  1.0000
  H   H22       1.0  0.02065  0.09096  0.39516  1.0000
  H   H23       1.0  0.92048  0.94622  0.46319  1.0000
  H   H24       1.0  0.07454  0.99342  0.45128  1.0000
  H   H25       1.0  0.08198  0.06878  0.40531  1.0000
  H   H26       1.0  0.94045  0.02365  0.41762  1.0000
  H   H27       1.0  0.99151  0.93756  0.47347  1.0000
  H   H28       1.0  0.27506  0.37836  0.39021  1.0000
  H   H29       1.0  0.64050  0.92070  0.77021  1.0000
  H   H30       1.0  0.09354  0.72642  0.35269  1.0000
  H   H31       1.0  0.24580  0.33728  0.03777  1.0000
  H   H32       1.0  0.65949  0.90523  0.35041  1.0000
  H   H33       1.0  0.10149  0.74896  0.09887  1.0000
  H   H34       1.0  0.25417  0.38327  0.08069  1.0000
  H   H35       1.0  0.61554  0.86403  0.28842  1.0000
  H   H36       1.0  0.13602  0.73867  0.05581  1.0000
  H   H37       1.0  0.13031  0.35280  0.98667  1.0000
  H   H38       1.0  0.62132  0.75811  0.76445  1.0000
  H   H39       1.0  0.23464  0.86341  0.16995  1.0000
  H   H40       1.0  0.09528  0.28812  0.96134  1.0000
  H   H41       1.0  0.68512  0.78956  0.75182  1.0000
  H   H42       1.0  0.20714  0.89941  0.16672  1.0000
  H   H43       1.0  0.21902  0.31243  0.48956  1.0000
  H   H44       1.0  0.71465  0.92811  0.75527  1.0000
  H   H45       1.0  0.08397  0.79822  0.49932  1.0000
  H   H46       1.0  0.31663  0.54858  0.55642  1.0000
  H   H47       1.0  0.46807  0.77403  0.38896  1.0000
  H   H48       1.0  0.21425  0.68822  0.39261  1.0000
  H   H49       1.0  0.34015  0.58777  0.01454  1.0000
  H   H50       1.0  0.38945  0.71741  0.92373  1.0000
  H   H51       1.0  0.24900  0.63694  0.97661  1.0000
  H   H52       1.0  0.25816  0.57159  0.03533  1.0000
  H   H53       1.0  0.41284  0.66293  0.98629  1.0000
  H   H54       1.0  0.31013  0.71298  0.93356  1.0000
  H   H55       1.0  0.11063  0.13769  0.34650  1.0000
  H   H56       1.0  0.86258  0.97806  0.42810  1.0000
  H   H57       1.0  0.03301  0.90596  0.49479  1.0000
  H   H58       1.0  0.00758  0.06455  0.90954  1.0000
  H   H59       1.0  0.91528  0.92014  0.98462  1.0000
  H   H60       1.0  0.07293  0.97781  0.97287  1.0000
  H   H61       1.0  0.07327  0.04820  0.91314  1.0000
  H   H62       1.0  0.93033  0.99314  0.91811  1.0000
  H   H63       1.0  0.99092  0.91575  0.98443  1.0000
  H   H64       1.0  0.24103  0.34411  0.84123  1.0000
  H   H65       1.0  0.62640  0.88998  0.16057  1.0000
  H   H66       1.0  0.10793  0.72885  0.86094  1.0000
  H   H67       1.0  0.27441  0.36809  0.57981  1.0000
  H   H68       1.0  0.67193  0.92998  0.94662  1.0000
  H   H69       1.0  0.07907  0.74865  0.55757  1.0000
  H   H70       1.0  0.28012  0.41334  0.62877  1.0000
  H   H71       1.0  0.62695  0.88956  0.87065  1.0000
  H   H72       1.0  0.11651  0.74485  0.58753  1.0000
  C   C1        1.0  0.29580  0.65464  0.46994  1.0000
  C   C2        1.0  0.35153  0.65568  0.47492  1.0000
  C   C3        1.0  0.34926  0.70653  0.44942  1.0000
  C   C4        1.0  0.31500  0.63781  0.48275  1.0000
  C   C5        1.0  0.36919  0.69016  0.45901  1.0000
  C   C6        1.0  0.31251  0.68910  0.45425  1.0000
  C   C7        1.0  0.20837  0.38168  0.48210  1.0000
  C   C8        1.0  0.63490  0.84037  0.53596  1.0000
  C   C9        1.0  0.16501  0.80748  0.54981  1.0000
  C   C10       1.0  0.17083  0.36147  0.45445  1.0000
  C   C11       1.0  0.64764  0.81815  0.40317  1.0000
  C   C12       1.0  0.18613  0.84557  0.57585  1.0000
  C   C13       1.0  0.15100  0.32512  0.44201  1.0000
  C   C14       1.0  0.68331  0.83485  0.39353  1.0000
  C   C15       1.0  0.17128  0.86636  0.57549  1.0000
  C   C16       1.0  0.16775  0.30647  0.45603  1.0000
  C   C17       1.0  0.70807  0.87502  0.51885  1.0000
  C   C18       1.0  0.13408  0.84953  0.54617  1.0000
  C   C19       1.0  0.17729  0.29990  0.97755  1.0000
  C   C20       1.0  0.68443  0.87033  0.07758  1.0000
  C   C21       1.0  0.13205  0.81187  0.05273  1.0000
  C   C22       1.0  0.19780  0.33643  0.98788  1.0000
  C   C23       1.0  0.64844  0.85317  0.08841  1.0000
  C   C24       1.0  0.14707  0.79074  0.05145  1.0000
  C   C25       1.0  0.24568  0.51092  0.06998  1.0000
  C   C26       1.0  0.47873  0.71904  0.01137  1.0000
  C   C27       1.0  0.26264  0.73575  0.07668  1.0000
  C   C28       1.0  0.29670  0.60301  0.49975  1.0000
  C   C29       1.0  0.40640  0.70746  0.45571  1.0000
  C   C30       1.0  0.29312  0.70634  0.44233  1.0000
  C   C31       1.0  0.05924  0.13270  0.95398  1.0000
  C   C32       1.0  0.84981  0.90917  0.99240  1.0000
  C   C33       1.0  0.09064  0.93593  0.06023  1.0000
  C   C34       1.0  0.03716  0.07961  0.39985  1.0000
  C   C35       1.0  0.93111  0.97218  0.44924  1.0000
  C   C36       1.0  0.04640  0.97845  0.45447  1.0000
  C   C37       1.0  0.03458  0.00618  0.93409  1.0000
  C   C38       1.0  0.97598  0.99894  0.92633  1.0000
  C   C39       1.0  0.98445  0.95229  0.95925  1.0000
  C   C40       1.0  0.02133  0.04476  0.41601  1.0000
  C   C41       1.0  0.96799  0.99177  0.43996  1.0000
  C   C42       1.0  0.02533  0.99401  0.44296  1.0000
  C   C43       1.0  0.23684  0.35134  0.98835  1.0000
  C   C44       1.0  0.63674  0.87943  0.22937  1.0000
  C   C45       1.0  0.12192  0.74951  0.01461  1.0000
  C   C46       1.0  0.29020  0.63354  0.98363  1.0000
  C   C47       1.0  0.34274  0.62863  0.98691  1.0000
  C   C48       1.0  0.34620  0.68119  0.95348  1.0000
  C   C49       1.0  0.30648  0.61419  0.99895  1.0000
  C   C50       1.0  0.36321  0.66229  0.96641  1.0000
  C   C51       1.0  0.30972  0.66702  0.96092  1.0000
  C   C52       1.0  0.18108  0.35698  0.99752  1.0000
  C   C53       1.0  0.62535  0.81182  0.97675  1.0000
  C   C54       1.0  0.18479  0.80943  0.09267  1.0000
  C   C55       1.0  0.14392  0.33829  0.98788  1.0000
  C   C56       1.0  0.63926  0.78976  0.85455  1.0000
  C   C57       1.0  0.20562  0.84901  0.13869  1.0000
  C   C58       1.0  0.12402  0.30171  0.97383  1.0000
  C   C59       1.0  0.67503  0.80727  0.84718  1.0000
  C   C60       1.0  0.19018  0.86938  0.13799  1.0000
  C   C61       1.0  0.14054  0.28168  0.97078  1.0000
  C   C62       1.0  0.69856  0.84810  0.96325  1.0000
  C   C63       1.0  0.15269  0.85087  0.09263  1.0000
  C   C64       1.0  0.20507  0.32583  0.47638  1.0000
  C   C65       1.0  0.69555  0.89721  0.65262  1.0000
  C   C66       1.0  0.11283  0.81135  0.51770  1.0000
  C   C67       1.0  0.22569  0.36276  0.49011  1.0000
  C   C68       1.0  0.65963  0.88078  0.66534  1.0000
  C   C69       1.0  0.12745  0.79014  0.52141  1.0000
  C   C70       1.0  0.26409  0.53346  0.54650  1.0000
  C   C71       1.0  0.48429  0.75407  0.53172  1.0000
  C   C72       1.0  0.25376  0.74676  0.55931  1.0000
  C   C73       1.0  0.28557  0.58050  0.02293  1.0000
  C   C74       1.0  0.40028  0.67656  0.96133  1.0000
  C   C75       1.0  0.29359  0.68697  0.94673  1.0000
  C   C76       1.0  0.07714  0.15865  0.44618  1.0000
  C   C77       1.0  0.85746  0.93608  0.48844  1.0000
  C   C78       1.0  0.08578  0.94700  0.53778  1.0000
  C   C79       1.0  0.02559  0.05460  0.90778  1.0000
  C   C80       1.0  0.92497  0.94485  0.96068  1.0000
  C   C81       1.0  0.04478  0.95987  0.96760  1.0000
  C   C82       1.0  0.04118  0.02843  0.42747  1.0000
  C   C83       1.0  0.98461  0.02578  0.42135  1.0000
  C   C84       1.0  0.98862  0.97617  0.45000  1.0000
  C   C85       1.0  0.01241  0.01981  0.92092  1.0000
  C   C86       1.0  0.96165  0.96545  0.94881  1.0000
  C   C87       1.0  0.02103  0.97218  0.95161  1.0000
  C   C88       1.0  0.26585  0.38167  0.52434  1.0000
  C   C89       1.0  0.64912  0.90653  0.82132  1.0000
  C   C90       1.0  0.10291  0.75044  0.50395  1.0000
  N   N1        1.0  0.28045  0.52867  0.04867  1.0000
  N   N2        1.0  0.45398  0.72189  0.93001  1.0000
  N   N3        1.0  0.24676  0.69575  0.94293  1.0000
  N   N4        1.0  0.31476  0.58812  0.51645  1.0000
  N   N5        1.0  0.42353  0.73999  0.44700  1.0000
  N   N6        1.0  0.25885  0.68911  0.43937  1.0000
  N   N7        1.0  0.07212  0.10792  0.89216  1.0000
  N   N8        1.0  0.86904  0.93909  0.95144  1.0000
  N   N9        1.0  0.05359  0.91532  0.99975  1.0000
  N   N10       1.0  0.07096  0.09703  0.39255  1.0000
  N   N11       1.0  0.91112  0.98566  0.44131  1.0000
  N   N12       1.0  0.03088  0.94681  0.47064  1.0000
  N   N13       1.0  0.29851  0.55420  0.52665  1.0000
  N   N14       1.0  0.45973  0.75698  0.45127  1.0000
  N   N15       1.0  0.24122  0.70714  0.43452  1.0000
  N   N16       1.0  0.29993  0.56148  0.03021  1.0000
  N   N17       1.0  0.41806  0.70588  0.92806  1.0000
  N   N18       1.0  0.25972  0.67360  0.94780  1.0000
  N   N19       1.0  0.08654  0.13080  0.38028  1.0000
  N   N20       1.0  0.87590  0.96702  0.45371  1.0000
  N   N21       1.0  0.04913  0.93022  0.48344  1.0000
  N   N22       1.0  0.05893  0.07376  0.89760  1.0000
  N   N23       1.0  0.90429  0.95686  0.94260  1.0000
  N   N24       1.0  0.03198  0.92805  0.98066  1.0000
  O   O1        1.0  0.22668  0.52472  0.08871  1.0000
  O   O2        1.0  0.47138  0.69817  0.08589  1.0000
  O   O3        1.0  0.29197  0.75545  0.18994  1.0000
  O   O4        1.0  0.03159  0.12524  0.01477  1.0000
  O   O5        1.0  0.86310  0.89408  0.03385  1.0000
  O   O6        1.0  0.11062  0.97037  0.09918  1.0000
  O   O7        1.0  0.25581  0.61945  0.99174  1.0000
  O   O8        1.0  0.35860  0.61002  0.99228  1.0000
  O   O9        1.0  0.36434  0.71298  0.93359  1.0000
  O   O10       1.0  0.06918  0.02548  0.93073  1.0000
  O   O11       1.0  0.95535  0.01181  0.90925  1.0000
  O   O12       1.0  0.97049  0.92004  0.97581  1.0000
  O   O13       1.0  0.24226  0.54350  0.55768  1.0000
  O   O14       1.0  0.47592  0.73339  0.60891  1.0000
  O   O15       1.0  0.28404  0.77045  0.66609  1.0000
  O   O16       1.0  0.05000  0.15398  0.50868  1.0000
  O   O17       1.0  0.87100  0.91967  0.51436  1.0000
  O   O18       1.0  0.10866  0.98061  0.57370  1.0000
  O   O19       1.0  0.26118  0.63711  0.47403  1.0000
  O   O20       1.0  0.37028  0.64015  0.48256  1.0000
  O   O21       1.0  0.36496  0.73898  0.43445  1.0000
  O   O22       1.0  0.07603  0.04574  0.42462  1.0000
  O   O23       1.0  0.96561  0.04077  0.40826  1.0000
  O   O24       1.0  0.97233  0.94384  0.46567  1.0000
  C  Sn1       1.0  0.24134  0.42314  0.98940  1.0000
  C   C91       1.0  0.16867  0.30345  0.05882  1.0000
  C  Sn2       1.0  0.14647  0.31823  0.12128  1.0000
  C  Sn3       1.0  0.15361  0.35184  0.11410  1.0000
  C   C92       1.0  0.18281  0.36996  0.04468  1.0000
  C  Sn4       1.0  0.24848  0.45675  0.98222  1.0000
  O  Te1       1.0  0.26318  0.40785  0.92770  1.0000
  O  Te2       1.0  0.11743  0.29960  0.19017  1.0000
  O  Te3       1.0  0.13175  0.36712  0.17589  1.0000
  O  Te4       1.0  0.27751  0.47535  0.91334  1.0000
  Mg  Mg1       1.0  0.09544  0.33145  0.25775  1.0000
  Mg  Mg2       1.0  0.29951  0.44352  0.84563  1.0000
  C  Sn5       1.0  0.51502  0.70338  0.04760  1.0000
  C   C93       1.0  0.54223  0.69572  0.04246  1.0000
  C  Sn6       1.0  0.53414  0.65887  0.00451  1.0000
  C  Sn7       1.0  0.54154  0.73060  0.97087  1.0000
  C   C94       1.0  0.51436  0.73826  0.97598  1.0000
  C  Sn8       1.0  0.47898  0.67356  0.01396  1.0000
  O  Te5       1.0  0.52372  0.74043  0.08580  1.0000
  O  Te6       1.0  0.56180  0.65191  0.00018  1.0000
  O  Te7       1.0  0.53286  0.69353  0.93265  1.0000
  O  Te8       1.0  0.45134  0.68052  0.01826  1.0000
  Mg  Mg3       1.0  0.57990  0.69827  0.94196  1.0000
  Mg  Mg4       1.0  0.47665  0.73569  0.07637  1.0000
  C  Sn9       1.0  0.24544  0.81163  0.21999  1.0000
  C   C95       1.0  0.21562  0.79747  0.08592  1.0000
  C  Sn10      1.0  0.23910  0.85940  0.94288  1.0000
  C  Sn11      1.0  0.24913  0.83338  0.93371  1.0000
  C   C96       1.0  0.23548  0.74598  0.06774  1.0000
  C  Sn12      1.0  0.25547  0.78561  0.21082  1.0000
  O  Te9       1.0  0.26501  0.85135  0.36177  1.0000
  O  Te10      1.0  0.20940  0.84594  0.81041  1.0000
  O  Te11      1.0  0.22952  0.79363  0.79177  1.0000
  O  Te12      1.0  0.28515  0.79907  0.34325  1.0000
  Mg  Mg5       1.0  0.19123  0.78930  0.64403  1.0000
  Mg  Mg6       1.0  0.30333  0.85569  0.50974  1.0000
  C  Sn13      1.0  0.26817  0.45107  0.48894  1.0000
  C   C97       1.0  0.23877  0.43102  0.55159  1.0000
  C  Sn14      1.0  0.21393  0.44241  0.60006  1.0000
  C  Sn15      1.0  0.21855  0.47448  0.58550  1.0000
  C   C98       1.0  0.24794  0.49450  0.52285  1.0000
  C  Sn16      1.0  0.27280  0.48314  0.47438  1.0000
  O  Te13      1.0  0.29267  0.43918  0.44123  1.0000
  O  Te14      1.0  0.18475  0.42193  0.66239  1.0000
  O  Te15      1.0  0.19402  0.48636  0.63328  1.0000
  O  Te16      1.0  0.30196  0.50359  0.41205  1.0000
  Mg  Mg7       1.0  0.15863  0.44922  0.71078  1.0000
  Mg  Mg8       1.0  0.32808  0.47631  0.36353  1.0000
  C  Sn17      1.0  0.57020  0.77108  0.46974  1.0000
  C   C99       1.0  0.59023  0.80713  0.47525  1.0000
  C  Sn18      1.0  0.57685  0.83161  0.52421  1.0000
  C  Sn19      1.0  0.54274  0.81983  0.56872  1.0000
  C   C100      1.0  0.52273  0.78381  0.56323  1.0000
  C  Sn20      1.0  0.53609  0.75931  0.51425  1.0000
  O  Te17      1.0  0.58411  0.74708  0.42043  1.0000
  O  Te18      1.0  0.59737  0.86750  0.52868  1.0000
  O  Te19      1.0  0.52885  0.84388  0.61805  1.0000
  O  Te20      1.0  0.51560  0.72344  0.50980  1.0000
  Mg  Mg9       1.0  0.56689  0.89001  0.60427  1.0000
  Mg  Mg10      1.0  0.54606  0.70092  0.43433  1.0000
  C  Sn21      1.0  0.22818  0.81492  0.67238  1.0000
  C   C101      1.0  0.19553  0.79622  0.54615  1.0000
  C  Sn22      1.0  0.17595  0.75546  0.42492  1.0000
  C  Sn23      1.0  0.18927  0.73291  0.43003  1.0000
  C   C102      1.0  0.22190  0.75161  0.55622  1.0000
  C  Sn24      1.0  0.24150  0.79238  0.67749  1.0000
  O  Te21      1.0  0.24730  0.85571  0.79229  1.0000
  O  Te22      1.0  0.14339  0.73743  0.29990  1.0000
  O  Te23      1.0  0.17012  0.69210  0.30998  1.0000
  O  Te24      1.0  0.27404  0.81041  0.80247  1.0000
  Mg  Mg11      1.0  0.12714  0.68106  0.16469  1.0000
  Mg  Mg12      1.0  0.29029  0.86677  0.93781  1.0000
  C  Sn25      1.0  0.14711  0.22689  0.31877  1.0000
  C   C103      1.0  0.14201  0.25831  0.38998  1.0000
  C  Sn26      1.0  0.11803  0.26040  0.50825  1.0000
  C  Sn27      1.0  0.09876  0.23047  0.55646  1.0000
  C   C104      1.0  0.10387  0.19908  0.48529  1.0000
  C  Sn28      1.0  0.12784  0.19697  0.36697  1.0000
  O  Te25      1.0  0.17122  0.22541  0.20078  1.0000
  O  Te26      1.0  0.11337  0.29209  0.57765  1.0000
  O  Te27      1.0  0.07463  0.23198  0.67454  1.0000
  O  Te28      1.0  0.13250  0.16531  0.29762  1.0000
  Mg  Mg13      1.0  0.07753  0.28104  0.73353  1.0000
  Mg  Mg14      1.0  0.16835  0.17634  0.14182  1.0000
  C  Sn29      1.0  0.77191  0.92904  0.46416  1.0000
  C   C105      1.0  0.74812  0.89394  0.46211  1.0000
  C  Sn30      1.0  0.76093  0.87407  0.49786  1.0000
  C  Sn31      1.0  0.79830  0.88962  0.53658  1.0000
  C   C106      1.0  0.82207  0.92470  0.53864  1.0000
  C  Sn32      1.0  0.80928  0.94459  0.50288  1.0000
  O  Te29      1.0  0.75851  0.94841  0.42804  1.0000
  O  Te30      1.0  0.73663  0.83902  0.49497  1.0000
  O  Te31      1.0  0.81169  0.87022  0.57270  1.0000
  O  Te32      1.0  0.83356  0.97962  0.50578  1.0000
  Mg  Mg15      1.0  0.76793  0.82346  0.55297  1.0000
  Mg  Mg16      1.0  0.80229  0.99522  0.44791  1.0000
  C  Sn33      1.0  0.08950  0.86068  0.36769  1.0000
  C   C107      1.0  0.11877  0.87211  0.49566  1.0000
  C  Sn34      1.0  0.13517  0.90817  0.66814  1.0000
  C  Sn35      1.0  0.12204  0.93334  0.71374  1.0000
  C   C108      1.0  0.09278  0.92191  0.58583  1.0000
  C  Sn36      1.0  0.07636  0.88585  0.41329  1.0000
  O  Te33      1.0  0.07351  0.82450  0.19608  1.0000
  O  Te34      1.0  0.16441  0.91896  0.79376  1.0000
  O  Te35      1.0  0.13805  0.96955  0.88551  1.0000
  O  Te36      1.0  0.04715  0.87506  0.28773  1.0000
  Mg  Mg17      1.0  0.13367  0.86961  0.00996  1.0000
  Mg  Mg18      1.0  0.03440  0.82285  0.07155  1.0000
  C  Sn37      1.0  0.12382  0.19177  0.91812  1.0000
  C   C109      1.0  0.09277  0.17652  0.98289  1.0000
  C  Sn38      1.0  0.02865  0.09187  0.02489  1.0000
  C  Sn39      1.0  0.03923  0.12469  0.00155  1.0000
  C   C110      1.0  0.11370  0.24147  0.93679  1.0000
  C  Sn40      1.0  0.13439  0.22459  0.89479  1.0000
  O  Te37      1.0  0.14407  0.17440  0.87699  1.0000
  O  Te38      1.0  0.99773  0.07611  0.08950  1.0000
  O  Te39      1.0  0.01894  0.14206  0.04276  1.0000
  O  Te40      1.0  0.16529  0.24032  0.83018  1.0000
  Mg  Mg19      1.0  0.97901  0.11001  0.12661  1.0000
  Mg  Mg20      1.0  0.18402  0.20644  0.79293  1.0000
  C  Sn41      1.0  0.74654  0.81969  0.03430  1.0000
  C   C111      1.0  0.76666  0.80394  0.04053  1.0000
  C  Sn42      1.0  0.79306  0.86635  0.99527  1.0000
  C  Sn43      1.0  0.75510  0.84244  0.94256  1.0000
  C   C112      1.0  0.73500  0.85819  0.93632  1.0000
  C  Sn44      1.0  0.75203  0.89734  0.98160  1.0000
  O  Te41      1.0  0.76415  0.85890  0.08012  1.0000
  O  Te42      1.0  0.77029  0.74971  0.00257  1.0000
  O  Te43      1.0  0.73750  0.80320  0.89674  1.0000
  O  Te44      1.0  0.73136  0.91242  0.97428  1.0000
  Mg  Mg21      1.0  0.77737  0.79611  0.92750  1.0000
  Mg  Mg22      1.0  0.72426  0.86600  0.04922  1.0000
  C  Sn45      1.0  0.14504  0.91704  0.26055  1.0000
  C   C113      1.0  0.13315  0.87729  0.14387  1.0000
  C  Sn46      1.0  0.15090  0.95571  0.96988  1.0000
  C  Sn47      1.0  0.13680  0.97267  0.91120  1.0000
  C   C114      1.0  0.10525  0.91084  0.02782  1.0000
  C  Sn48      1.0  0.13094  0.93399  0.20187  1.0000
  O  Te45      1.0  0.17075  0.93961  0.43390  1.0000
  O  Te46      1.0  0.13942  0.91604  0.85571  1.0000
  O  Te47      1.0  0.11107  0.95006  0.73769  1.0000
  O  Te48      1.0  0.14243  0.97364  0.31599  1.0000
  Mg  Mg23      1.0  0.10394  0.89740  0.63192  1.0000
  Mg  Mg24      1.0  0.17791  0.99231  0.53974  1.0000
