data_image0
_chemical_formula_structural       H72C90N24O24C2Sn2C2HTe2HMgC2Sn2C2HTe2HMgC2Sn2C2HTe2HMgC2Sn2C2HTe2HMgC2Sn2C2HTe2HMgC2Sn2C2HTe2HMgC2Sn2C2HTe2HMgC2Sn2C2HTe2HMgC2Sn2C2HTe2HMgC2Sn2C2HTe2HMgC2Sn2C2HTe2HMgC2Sn2C2HTe2HMg
_chemical_formula_sum              "H96 C138 N24 O24 Sn24 Te24 Mg12"
_cell_length_a       44.1066
_cell_length_b       45.1422
_cell_length_c       7.98479
_cell_angle_alpha    117.129
_cell_angle_beta     87.5592
_cell_angle_gamma    119.486

_symmetry_space_group_name_H-M    'P1'
_space_group_IT_number       1

loop_
  _space_group_symop_operation_xyz
  'x, y, z'

loop_
  _atom_site_type_symbol
  _atom_site_label
  _atom_site_symmetry_multiplicity
  _atom_site_fract_x
  _atom_site_fract_y
  _atom_site_fract_z
  _atom_site_occupancy
  H   H1        1.0  0.15689  0.37455  0.43802  1.0000
  H   H2        1.0  0.62858  0.78722  0.30258  1.0000
  H   H3        1.0  0.21489  0.85862  0.59329  1.0000
  H   H4        1.0  0.12204  0.31055  0.41725  1.0000
  H   H5        1.0  0.69197  0.81714  0.28430  1.0000
  H   H6        1.0  0.18830  0.89533  0.59131  1.0000
  H   H7        1.0  0.19103  0.28559  0.97991  1.0000
  H   H8        1.0  0.70253  0.90186  0.17159  1.0000
  H   H9        1.0  0.10303  0.79756  0.02619  1.0000
  H   H10       1.0  0.29515  0.51737  0.05328  1.0000
  H   H11       1.0  0.46119  0.73294  0.83755  1.0000
  H   H12       1.0  0.21969  0.67964  0.89583  1.0000
  H   H13       1.0  0.35318  0.61652  0.49969  1.0000
  H   H14       1.0  0.39107  0.74728  0.43517  1.0000
  H   H15       1.0  0.25198  0.65304  0.46025  1.0000
  H   H16       1.0  0.26831  0.58980  0.49741  1.0000
  H   H17       1.0  0.41959  0.69289  0.46141  1.0000
  H   H18       1.0  0.30736  0.73304  0.43309  1.0000
  H   H19       1.0  0.09587  0.11639  0.85336  1.0000
  H   H20       1.0  0.85540  0.94658  0.89628  1.0000
  H   H21       1.0  0.03944  0.88998  0.00400  1.0000
  H   H22       1.0  0.02065  0.09096  0.39516  1.0000
  H   H23       1.0  0.92048  0.94622  0.46319  1.0000
  H   H24       1.0  0.07454  0.99342  0.45128  1.0000
  H   H25       1.0  0.08198  0.06878  0.40531  1.0000
  H   H26       1.0  0.94045  0.02365  0.41762  1.0000
  H   H27       1.0  0.99151  0.93756  0.47347  1.0000
  H   H28       1.0  0.27506  0.37836  0.39021  1.0000
  H   H29       1.0  0.64050  0.92070  0.77021  1.0000
  H   H30       1.0  0.09354  0.72642  0.35269  1.0000
  H   H31       1.0  0.24580  0.33728  0.03777  1.0000
  H   H32       1.0  0.65949  0.90523  0.35041  1.0000
  H   H33       1.0  0.10149  0.74896  0.09887  1.0000
  H   H34       1.0  0.25417  0.38327  0.08069  1.0000
  H   H35       1.0  0.61554  0.86403  0.28842  1.0000
  H   H36       1.0  0.13602  0.73867  0.05581  1.0000
  H   H37       1.0  0.13031  0.35280  0.98667  1.0000
  H   H38       1.0  0.62132  0.75811  0.76445  1.0000
  H   H39       1.0  0.23464  0.86341  0.16995  1.0000
  H   H40       1.0  0.09528  0.28812  0.96134  1.0000
  H   H41       1.0  0.68512  0.78956  0.75182  1.0000
  H   H42       1.0  0.20714  0.89941  0.16672  1.0000
  H   H43       1.0  0.21902  0.31243  0.48956  1.0000
  H   H44       1.0  0.71465  0.92811  0.75527  1.0000
  H   H45       1.0  0.08397  0.79822  0.49932  1.0000
  H   H46       1.0  0.31663  0.54858  0.55642  1.0000
  H   H47       1.0  0.46807  0.77403  0.38896  1.0000
  H   H48       1.0  0.21425  0.68822  0.39261  1.0000
  H   H49       1.0  0.34015  0.58777  0.01454  1.0000
  H   H50       1.0  0.38945  0.71741  0.92373  1.0000
  H   H51       1.0  0.24900  0.63694  0.97661  1.0000
  H   H52       1.0  0.25816  0.57159  0.03533  1.0000
  H   H53       1.0  0.41284  0.66293  0.98629  1.0000
  H   H54       1.0  0.31013  0.71298  0.93356  1.0000
  H   H55       1.0  0.11063  0.13769  0.34650  1.0000
  H   H56       1.0  0.86258  0.97806  0.42810  1.0000
  H   H57       1.0  0.03301  0.90596  0.49479  1.0000
  H   H58       1.0  0.00758  0.06455  0.90954  1.0000
  H   H59       1.0  0.91528  0.92014  0.98462  1.0000
  H   H60       1.0  0.07293  0.97781  0.97287  1.0000
  H   H61       1.0  0.07327  0.04820  0.91314  1.0000
  H   H62       1.0  0.93033  0.99314  0.91811  1.0000
  H   H63       1.0  0.99092  0.91575  0.98443  1.0000
  H   H64       1.0  0.24103  0.34411  0.84123  1.0000
  H   H65       1.0  0.62640  0.88998  0.16057  1.0000
  H   H66       1.0  0.10793  0.72885  0.86094  1.0000
  H   H67       1.0  0.27441  0.36809  0.57981  1.0000
  H   H68       1.0  0.67193  0.92998  0.94662  1.0000
  H   H69       1.0  0.07907  0.74865  0.55757  1.0000
  H   H70       1.0  0.28012  0.41334  0.62877  1.0000
  H   H71       1.0  0.62695  0.88956  0.87065  1.0000
  H   H72       1.0  0.11651  0.74485  0.58753  1.0000
  C   C1        1.0  0.29580  0.65464  0.46994  1.0000
  C   C2        1.0  0.35153  0.65568  0.47492  1.0000
  C   C3        1.0  0.34926  0.70653  0.44942  1.0000
  C   C4        1.0  0.31500  0.63781  0.48275  1.0000
  C   C5        1.0  0.36919  0.69016  0.45901  1.0000
  C   C6        1.0  0.31251  0.68910  0.45425  1.0000
  C   C7        1.0  0.20837  0.38168  0.48210  1.0000
  C   C8        1.0  0.63490  0.84037  0.53596  1.0000
  C   C9        1.0  0.16501  0.80748  0.54981  1.0000
  C   C10       1.0  0.17083  0.36147  0.45445  1.0000
  C   C11       1.0  0.64764  0.81815  0.40317  1.0000
  C   C12       1.0  0.18613  0.84557  0.57585  1.0000
  C   C13       1.0  0.15100  0.32512  0.44201  1.0000
  C   C14       1.0  0.68331  0.83485  0.39353  1.0000
  C   C15       1.0  0.17128  0.86636  0.57549  1.0000
  C   C16       1.0  0.16775  0.30647  0.45603  1.0000
  C   C17       1.0  0.70807  0.87502  0.51885  1.0000
  C   C18       1.0  0.13408  0.84953  0.54617  1.0000
  C   C19       1.0  0.17729  0.29990  0.97755  1.0000
  C   C20       1.0  0.68443  0.87033  0.07758  1.0000
  C   C21       1.0  0.13205  0.81187  0.05273  1.0000
  C   C22       1.0  0.19780  0.33643  0.98788  1.0000
  C   C23       1.0  0.64844  0.85317  0.08841  1.0000
  C   C24       1.0  0.14707  0.79074  0.05145  1.0000
  C   C25       1.0  0.24568  0.51092  0.06998  1.0000
  C   C26       1.0  0.47873  0.71904  0.01137  1.0000
  C   C27       1.0  0.26264  0.73575  0.07668  1.0000
  C   C28       1.0  0.29670  0.60301  0.49975  1.0000
  C   C29       1.0  0.40640  0.70746  0.45571  1.0000
  C   C30       1.0  0.29312  0.70634  0.44233  1.0000
  C   C31       1.0  0.05924  0.13270  0.95398  1.0000
  C   C32       1.0  0.84981  0.90917  0.99240  1.0000
  C   C33       1.0  0.09064  0.93593  0.06023  1.0000
  C   C34       1.0  0.03716  0.07961  0.39985  1.0000
  C   C35       1.0  0.93111  0.97218  0.44924  1.0000
  C   C36       1.0  0.04640  0.97845  0.45447  1.0000
  C   C37       1.0  0.03458  0.00618  0.93409  1.0000
  C   C38       1.0  0.97598  0.99894  0.92633  1.0000
  C   C39       1.0  0.98445  0.95229  0.95925  1.0000
  C   C40       1.0  0.02133  0.04476  0.41601  1.0000
  C   C41       1.0  0.96799  0.99177  0.43996  1.0000
  C   C42       1.0  0.02533  0.99401  0.44296  1.0000
  C   C43       1.0  0.23684  0.35134  0.98835  1.0000
  C   C44       1.0  0.63674  0.87943  0.22937  1.0000
  C   C45       1.0  0.12192  0.74951  0.01461  1.0000
  C   C46       1.0  0.29020  0.63354  0.98363  1.0000
  C   C47       1.0  0.34274  0.62863  0.98691  1.0000
  C   C48       1.0  0.34620  0.68119  0.95348  1.0000
  C   C49       1.0  0.30648  0.61419  0.99895  1.0000
  C   C50       1.0  0.36321  0.66229  0.96641  1.0000
  C   C51       1.0  0.30972  0.66702  0.96092  1.0000
  C   C52       1.0  0.18108  0.35698  0.99752  1.0000
  C   C53       1.0  0.62535  0.81182  0.97675  1.0000
  C   C54       1.0  0.18479  0.80943  0.09267  1.0000
  C   C55       1.0  0.14392  0.33829  0.98788  1.0000
  C   C56       1.0  0.63926  0.78976  0.85455  1.0000
  C   C57       1.0  0.20562  0.84901  0.13869  1.0000
  C   C58       1.0  0.12402  0.30171  0.97383  1.0000
  C   C59       1.0  0.67503  0.80727  0.84718  1.0000
  C   C60       1.0  0.19018  0.86938  0.13799  1.0000
  C   C61       1.0  0.14054  0.28168  0.97078  1.0000
  C   C62       1.0  0.69856  0.84810  0.96325  1.0000
  C   C63       1.0  0.15269  0.85087  0.09263  1.0000
  C   C64       1.0  0.20507  0.32583  0.47638  1.0000
  C   C65       1.0  0.69555  0.89721  0.65262  1.0000
  C   C66       1.0  0.11283  0.81135  0.51770  1.0000
  C   C67       1.0  0.22569  0.36276  0.49011  1.0000
  C   C68       1.0  0.65963  0.88078  0.66534  1.0000
  C   C69       1.0  0.12745  0.79014  0.52141  1.0000
  C   C70       1.0  0.26409  0.53346  0.54650  1.0000
  C   C71       1.0  0.48429  0.75407  0.53172  1.0000
  C   C72       1.0  0.25376  0.74676  0.55931  1.0000
  C   C73       1.0  0.28557  0.58050  0.02293  1.0000
  C   C74       1.0  0.40028  0.67656  0.96133  1.0000
  C   C75       1.0  0.29359  0.68697  0.94673  1.0000
  C   C76       1.0  0.07714  0.15865  0.44618  1.0000
  C   C77       1.0  0.85746  0.93608  0.48844  1.0000
  C   C78       1.0  0.08578  0.94700  0.53778  1.0000
  C   C79       1.0  0.02559  0.05460  0.90778  1.0000
  C   C80       1.0  0.92497  0.94485  0.96068  1.0000
  C   C81       1.0  0.04478  0.95987  0.96760  1.0000
  C   C82       1.0  0.04118  0.02843  0.42747  1.0000
  C   C83       1.0  0.98461  0.02578  0.42135  1.0000
  C   C84       1.0  0.98862  0.97617  0.45000  1.0000
  C   C85       1.0  0.01241  0.01981  0.92092  1.0000
  C   C86       1.0  0.96165  0.96545  0.94881  1.0000
  C   C87       1.0  0.02103  0.97218  0.95161  1.0000
  C   C88       1.0  0.26585  0.38167  0.52434  1.0000
  C   C89       1.0  0.64912  0.90653  0.82132  1.0000
  C   C90       1.0  0.10291  0.75044  0.50395  1.0000
  N   N1        1.0  0.28045  0.52867  0.04867  1.0000
  N   N2        1.0  0.45398  0.72189  0.93001  1.0000
  N   N3        1.0  0.24676  0.69575  0.94293  1.0000
  N   N4        1.0  0.31476  0.58812  0.51645  1.0000
  N   N5        1.0  0.42353  0.73999  0.44700  1.0000
  N   N6        1.0  0.25885  0.68911  0.43937  1.0000
  N   N7        1.0  0.07212  0.10792  0.89216  1.0000
  N   N8        1.0  0.86904  0.93909  0.95144  1.0000
  N   N9        1.0  0.05359  0.91532  0.99975  1.0000
  N   N10       1.0  0.07096  0.09703  0.39255  1.0000
  N   N11       1.0  0.91112  0.98566  0.44131  1.0000
  N   N12       1.0  0.03088  0.94681  0.47064  1.0000
  N   N13       1.0  0.29851  0.55420  0.52665  1.0000
  N   N14       1.0  0.45973  0.75698  0.45127  1.0000
  N   N15       1.0  0.24122  0.70714  0.43452  1.0000
  N   N16       1.0  0.29993  0.56148  0.03021  1.0000
  N   N17       1.0  0.41806  0.70588  0.92806  1.0000
  N   N18       1.0  0.25972  0.67360  0.94780  1.0000
  N   N19       1.0  0.08654  0.13080  0.38028  1.0000
  N   N20       1.0  0.87590  0.96702  0.45371  1.0000
  N   N21       1.0  0.04913  0.93022  0.48344  1.0000
  N   N22       1.0  0.05893  0.07376  0.89760  1.0000
  N   N23       1.0  0.90429  0.95686  0.94260  1.0000
  N   N24       1.0  0.03198  0.92805  0.98066  1.0000
  O   O1        1.0  0.22668  0.52472  0.08871  1.0000
  O   O2        1.0  0.47138  0.69817  0.08589  1.0000
  O   O3        1.0  0.29197  0.75545  0.18994  1.0000
  O   O4        1.0  0.03159  0.12524  0.01477  1.0000
  O   O5        1.0  0.86310  0.89408  0.03385  1.0000
  O   O6        1.0  0.11062  0.97037  0.09918  1.0000
  O   O7        1.0  0.25581  0.61945  0.99174  1.0000
  O   O8        1.0  0.35860  0.61002  0.99228  1.0000
  O   O9        1.0  0.36434  0.71298  0.93359  1.0000
  O   O10       1.0  0.06918  0.02548  0.93073  1.0000
  O   O11       1.0  0.95535  0.01181  0.90925  1.0000
  O   O12       1.0  0.97049  0.92004  0.97581  1.0000
  O   O13       1.0  0.24226  0.54350  0.55768  1.0000
  O   O14       1.0  0.47592  0.73339  0.60891  1.0000
  O   O15       1.0  0.28404  0.77045  0.66609  1.0000
  O   O16       1.0  0.05000  0.15398  0.50868  1.0000
  O   O17       1.0  0.87100  0.91967  0.51436  1.0000
  O   O18       1.0  0.10866  0.98061  0.57370  1.0000
  O   O19       1.0  0.26118  0.63711  0.47403  1.0000
  O   O20       1.0  0.37028  0.64015  0.48256  1.0000
  O   O21       1.0  0.36496  0.73898  0.43445  1.0000
  O   O22       1.0  0.07603  0.04574  0.42462  1.0000
  O   O23       1.0  0.96561  0.04077  0.40826  1.0000
  O   O24       1.0  0.97233  0.94384  0.46567  1.0000
  C   C91       1.0  0.19574  0.45137  0.15174  1.0000
  C   C92       1.0  0.22565  0.47066  0.08957  1.0000
  C  Sn1       1.0  0.28609  0.55307  0.98200  1.0000
  C  Sn2       1.0  0.27282  0.51389  0.93598  1.0000
  C   C93       1.0  0.24286  0.49483  0.99873  1.0000
  C   C94       1.0  0.18262  0.41271  0.10635  1.0000
  H   H73       1.0  0.18273  0.46639  0.23492  1.0000
  O  Te1       1.0  0.31595  0.57279  0.92110  1.0000
  O  Te2       1.0  0.28928  0.49406  0.82860  1.0000
  H   H74       1.0  0.15945  0.39776  0.15435  1.0000
  Mg  Mg1       1.0  0.32919  0.53336  0.77840  1.0000
  C   C95       1.0  0.54960  0.73459  0.00603  1.0000
  C   C96       1.0  0.52241  0.74250  0.01944  1.0000
  C  Sn3       1.0  0.52789  0.77468  0.00787  1.0000
  C  Sn4       1.0  0.60468  0.90089  0.98235  1.0000
  C   C97       1.0  0.63171  0.89271  0.96897  1.0000
  C   C98       1.0  0.62594  0.86044  0.98079  1.0000
  H   H75       1.0  0.54513  0.70961  0.01507  1.0000
  O  Te3       1.0  0.50045  0.78217  0.02160  1.0000
  O  Te4       1.0  0.61087  0.93324  0.97026  1.0000
  H   H76       1.0  0.64699  0.85431  0.97028  1.0000
  Mg  Mg2       1.0  0.56520  0.93133  0.99692  1.0000
  C   C99       1.0  0.23995  0.80766  0.26142  1.0000
  C   C100      1.0  0.21252  0.79606  0.12087  1.0000
  C  Sn5       1.0  0.24144  0.86172  0.94826  1.0000
  C  Sn6       1.0  0.25467  0.83704  0.91621  1.0000
  C   C101      1.0  0.23865  0.74736  0.05778  1.0000
  C   C102      1.0  0.25300  0.78334  0.22995  1.0000
  H   H77       1.0  0.25105  0.83549  0.39468  1.0000
  O  Te5       1.0  0.21406  0.85058  0.80934  1.0000
  O  Te6       1.0  0.24062  0.80101  0.74503  1.0000
  H   H78       1.0  0.27422  0.79230  0.33879  1.0000
  Mg  Mg3       1.0  0.20359  0.79875  0.59934  1.0000
  C   C103      1.0  0.21771  0.47298  0.62691  1.0000
  C   C104      1.0  0.24771  0.49420  0.57150  1.0000
  C  Sn7       1.0  0.26762  0.47799  0.47650  1.0000
  C  Sn8       1.0  0.25724  0.43982  0.43638  1.0000
  C   C105      1.0  0.22717  0.41883  0.49229  1.0000
  C   C106      1.0  0.20744  0.43533  0.58733  1.0000
  H   H79       1.0  0.20243  0.48574  0.70036  1.0000
  O  Te7       1.0  0.29753  0.49960  0.42220  1.0000
  O  Te8       1.0  0.27665  0.42292  0.34155  1.0000
  H   H80       1.0  0.18420  0.41889  0.63011  1.0000
  Mg  Mg4       1.0  0.31538  0.46395  0.29641  1.0000
  C   C107      1.0  0.57250  0.77517  0.53362  1.0000
  C   C108      1.0  0.59224  0.80905  0.51903  1.0000
  C  Sn9       1.0  0.57636  0.82903  0.51550  1.0000
  C  Sn10      1.0  0.54005  0.81478  0.52686  1.0000
  C   C109      1.0  0.52055  0.78088  0.54156  1.0000
  C   C110      1.0  0.53670  0.76110  0.54490  1.0000
  H   H81       1.0  0.58500  0.75988  0.53631  1.0000
  O  Te9       1.0  0.59646  0.86282  0.50080  1.0000
  O  Te10      1.0  0.52353  0.83419  0.52372  1.0000
  H   H82       1.0  0.52142  0.73489  0.55632  1.0000
  Mg  Mg5       1.0  0.56204  0.87901  0.50198  1.0000
  C   C111      1.0  0.18661  0.73337  0.39406  1.0000
  C   C112      1.0  0.22060  0.75249  0.50878  1.0000
  C  Sn11      1.0  0.23630  0.79100  0.66284  1.0000
  C  Sn12      1.0  0.21756  0.81065  0.70248  1.0000
  C   C113      1.0  0.18357  0.79125  0.58694  1.0000
  C   C114      1.0  0.16811  0.75272  0.43309  1.0000
  H   H83       1.0  0.17464  0.70355  0.27509  1.0000
  O  Te11      1.0  0.27028  0.80967  0.77597  1.0000
  O  Te12      1.0  0.23262  0.84913  0.85560  1.0000
  H   H84       1.0  0.14179  0.73792  0.34438  1.0000
  Mg  Mg6       1.0  0.27957  0.86219  0.96843  1.0000
  C   C115      1.0  0.09506  0.23394  0.52853  1.0000
  C   C116      1.0  0.09835  0.20121  0.44704  1.0000
  C  Sn13      1.0  0.12790  0.20296  0.37062  1.0000
  C  Sn14      1.0  0.15461  0.23816  0.37614  1.0000
  C   C117      1.0  0.15109  0.27075  0.45810  1.0000
  C   C118      1.0  0.12141  0.26868  0.53410  1.0000
  H   H85       1.0  0.07211  0.23234  0.58743  1.0000
  O  Te13      1.0  0.13076  0.16999  0.28967  1.0000
  O  Te14      1.0  0.18443  0.24072  0.30086  1.0000
  H   H86       1.0  0.11888  0.29403  0.59729  1.0000
  Mg  Mg7       1.0  0.17632  0.18791  0.20564  1.0000
  C   C119      1.0  0.79040  0.87921  0.49520  1.0000
  C   C120      1.0  0.81403  0.91289  0.48481  1.0000
  C  Sn15      1.0  0.80342  0.93824  0.49795  1.0000
  C  Sn16      1.0  0.76851  0.92963  0.52200  1.0000
  C   C121      1.0  0.74508  0.89587  0.53237  1.0000
  C   C122      1.0  0.75597  0.87070  0.51900  1.0000
  H   H87       1.0  0.79883  0.85974  0.48496  1.0000
  O  Te15      1.0  0.82736  0.97176  0.48722  1.0000
  O  Te16      1.0  0.75722  0.95447  0.53561  1.0000
  H   H88       1.0  0.73768  0.84464  0.52718  1.0000
  Mg  Mg8       1.0  0.79954  0.99657  0.51302  1.0000
  C   C123      1.0  0.13204  0.93576  0.70717  1.0000
  C   C124      1.0  0.10456  0.92562  0.57232  1.0000
  C  Sn17      1.0  0.08229  0.88663  0.42544  1.0000
  C  Sn18      1.0  0.08769  0.85730  0.41375  1.0000
  C   C125      1.0  0.11523  0.86774  0.54944  1.0000
  C   C126      1.0  0.13736  0.90685  0.69579  1.0000
  H   H89       1.0  0.14915  0.96601  0.82047  1.0000
  O  Te17      1.0  0.05498  0.87701  0.29186  1.0000
  O  Te18      1.0  0.06581  0.81811  0.26847  1.0000
  H   H90       1.0  0.15862  0.91468  0.80026  1.0000
  Mg  Mg9       1.0  0.03220  0.81957  0.12023  1.0000
  C   C127      1.0  0.11896  0.18637  0.85509  1.0000
  C   C128      1.0  0.09015  0.17217  0.93630  1.0000
  C  Sn19      1.0  0.03100  0.09239  0.02781  1.0000
  C  Sn20      1.0  0.04444  0.12906  0.03793  1.0000
  C   C129      1.0  0.11670  0.24455  0.95612  1.0000
  C   C130      1.0  0.13222  0.22252  0.86494  1.0000
  H   H91       1.0  0.13095  0.16932  0.78444  1.0000
  O  Te19      1.0  0.00225  0.07778  0.10826  1.0000
  O  Te20      1.0  0.02924  0.15142  0.12848  1.0000
  H   H92       1.0  0.15451  0.23351  0.80196  1.0000
  Mg  Mg10      1.0  0.99055  0.11905  0.21646  1.0000
  C   C131      1.0  0.78124  0.85396  0.99567  1.0000
  C   C132      1.0  0.80600  0.88642  0.97861  1.0000
  C  Sn21      1.0  0.79593  0.91038  0.96617  1.0000
  C  Sn22      1.0  0.76039  0.90161  0.97100  1.0000
  C   C133      1.0  0.73583  0.86908  0.98824  1.0000
  C   C134      1.0  0.70274  0.74374  0.00052  1.0000
  H   H93       1.0  0.74581  0.73401  0.00527  1.0000
  O  Te21      1.0  0.82101  0.94270  0.94912  1.0000
  O  Te22      1.0  0.74962  0.92508  0.95891  1.0000
  H   H94       1.0  0.68356  0.71862  0.01385  1.0000
  Mg  Mg11      1.0  0.79351  0.96587  0.93725  1.0000
  C   C135      1.0  0.08759  0.86229  0.92614  1.0000
  C   C136      1.0  0.05477  0.80005  0.04514  1.0000
  C  Sn23      1.0  0.08623  0.82601  0.19140  1.0000
  C  Sn24      1.0  0.10740  0.81227  0.21864  1.0000
  C   C137      1.0  0.09654  0.77289  0.09873  1.0000
  C   C138      1.0  0.10845  0.84872  0.95286  1.0000
  H   H95       1.0  0.06320  0.84239  0.81320  1.0000
  O  Te23      1.0  0.09646  0.86519  0.30904  1.0000
  O  Te24      1.0  0.13897  0.83758  0.36366  1.0000
  H   H96       1.0  0.10024  0.81829  0.86067  1.0000
  Mg  Mg12      1.0  0.14168  0.88836  0.48700  1.0000
