data_image0
_chemical_formula_structural       H16C28N8O2C2Sn2C2HTe2HMgC2Sn2C2HTe2HMgC2Sn2C2HTe2HMgC2Sn2C2HTe2HMgC2Sn2C2HTe2HMgC2Sn2C2HTe2HMg
_chemical_formula_sum              "H28 C52 N8 O2 Sn12 Te12 Mg6"
_cell_length_a       17.9795
_cell_length_b       19.0319
_cell_length_c       8.05921
_cell_angle_alpha    121.659
_cell_angle_beta     85.8991
_cell_angle_gamma    119.566

_symmetry_space_group_name_H-M    'P1'
_space_group_IT_number       1

loop_
  _space_group_symop_operation_xyz
  'x, y, z'

loop_
  _atom_site_type_symbol
  _atom_site_label
  _atom_site_symmetry_multiplicity
  _atom_site_fract_x
  _atom_site_fract_y
  _atom_site_fract_z
  _atom_site_occupancy
  H   H1        1.0  0.63127  0.62568  0.95347  1.0000
  H   H2        1.0  0.38128  0.60184  0.96283  1.0000
  H   H3        1.0  0.63204  0.26099  0.07164  1.0000
  H   H4        1.0  0.89410  0.15043  0.02918  1.0000
  H   H5        1.0  0.86603  0.36406  0.03786  1.0000
  H   H6        1.0  0.00615  0.38453  0.04903  1.0000
  H   H7        1.0  0.77832  0.01740  0.00767  1.0000
  H   H8        1.0  0.60288  0.15902  0.06813  1.0000
  H   H9        1.0  0.62664  0.67439  0.44647  1.0000
  H   H10       1.0  0.37821  0.65406  0.45370  1.0000
  H   H11       1.0  0.62455  0.31095  0.57951  1.0000
  H   H12       1.0  0.89213  0.20668  0.53779  1.0000
  H   H13       1.0  0.85906  0.41877  0.55255  1.0000
  H   H14       1.0  0.00031  0.44132  0.55935  1.0000
  H   H15       1.0  0.77834  0.07194  0.51236  1.0000
  H   H16       1.0  0.59942  0.21278  0.59404  1.0000
  C   C1        1.0  0.52396  0.50424  0.95463  1.0000
  C   C2        1.0  0.56241  0.58902  0.95575  1.0000
  C   C3        1.0  0.51168  0.62657  0.95840  1.0000
  C   C4        1.0  0.42244  0.57389  0.95388  1.0000
  C   C5        1.0  0.38714  0.48775  0.94648  1.0000
  C   C6        1.0  0.69977  0.29479  0.05426  1.0000
  C   C7        1.0  0.75231  0.25676  0.05723  1.0000
  C   C8        1.0  0.71538  0.17305  0.06319  1.0000
  C   C9        1.0  0.76649  0.13318  0.05245  1.0000
  C   C10       1.0  0.85346  0.17910  0.03652  1.0000
  C   C11       1.0  0.89133  0.26284  0.03313  1.0000
  C   C12       1.0  0.83997  0.30053  0.04419  1.0000
  C   C13       1.0  0.98137  0.31175  0.01638  1.0000
  C   C14       1.0  0.73199  0.04236  0.03938  1.0000
  C   C15       1.0  0.51847  0.55462  0.45060  1.0000
  C   C16       1.0  0.55767  0.63849  0.44817  1.0000
  C   C17       1.0  0.50786  0.67659  0.44893  1.0000
  C   C18       1.0  0.41853  0.62526  0.44558  1.0000
  C   C19       1.0  0.38261  0.54042  0.44352  1.0000
  C   C20       1.0  0.69060  0.34199  0.55236  1.0000
  C   C21       1.0  0.74546  0.30718  0.56144  1.0000
  C   C22       1.0  0.71040  0.22392  0.56799  1.0000
  C   C23       1.0  0.76369  0.18637  0.55829  1.0000
  C   C24       1.0  0.85090  0.23491  0.54696  1.0000
  C   C25       1.0  0.88776  0.31981  0.54852  1.0000
  C   C26       1.0  0.83409  0.35459  0.55574  1.0000
  C   C27       1.0  0.97795  0.37050  0.53423  1.0000
  C   C28       1.0  0.73100  0.09542  0.54240  1.0000
  N   N1        1.0  0.43752  0.45378  0.94695  1.0000
  N   N2        1.0  0.72974  0.36399  0.02586  1.0000
  N   N3        1.0  0.02898  0.27394  0.96796  1.0000
  N   N4        1.0  0.65266  0.04359  0.55224  1.0000
  N   N5        1.0  0.43226  0.50624  0.44662  1.0000
  N   N6        1.0  0.71810  0.40648  0.51013  1.0000
  N   N7        1.0  0.02765  0.33524  0.49328  1.0000
  N   N8        1.0  0.65390  0.99189  0.05269  1.0000
  O   O1        1.0  0.62581  0.17602  0.57711  1.0000
  O   O2        1.0  0.63074  0.12744  0.07482  1.0000
  C   C29       1.0  0.56190  0.34549  0.98943  1.0000
  C   C30       1.0  0.64974  0.37427  0.98536  1.0000
  C  Sn1       1.0  0.70549  0.45615  0.98047  1.0000
  C  Sn2       1.0  0.67252  0.51008  0.97970  1.0000
  C   C31       1.0  0.58456  0.48074  0.98394  1.0000
  C   C32       1.0  0.52934  0.39868  0.98876  1.0000
  H   H17       1.0  0.51918  0.28203  0.99327  1.0000
  O  Te1       1.0  0.79307  0.48386  0.97637  1.0000
  O  Te2       1.0  0.72682  0.59223  0.97492  1.0000
  H   H18       1.0  0.46135  0.37645  0.99204  1.0000
  Mg  Mg1       1.0  0.84128  0.60103  0.97050  1.0000
  C   C33       1.0  0.68146  0.86539  0.09529  1.0000
  C   C34       1.0  0.64198  0.89707  0.03003  1.0000
  C  Sn3       1.0  0.66243  0.11268  0.93999  1.0000
  C  Sn4       1.0  0.61054  0.02088  0.91509  1.0000
  C   C35       1.0  0.65066  0.98988  0.98101  1.0000
  C   C36       1.0  0.63033  0.77487  0.07085  1.0000
  H   H19       1.0  0.75166  0.91108  0.16490  1.0000
  O  Te3       1.0  0.62405  0.14543  0.87558  1.0000
  O  Te4       1.0  0.51982  0.96105  0.82565  1.0000
  H   H20       1.0  0.66087  0.75035  0.12148  1.0000
  Mg  Mg2       1.0  0.49791  0.03770  0.76235  1.0000
  C   C37       1.0  0.65979  0.86413  0.56424  1.0000
  C   C38       1.0  0.57074  0.78947  0.50059  1.0000
  C  Sn5       1.0  0.50598  0.79571  0.43387  1.0000
  C  Sn6       1.0  0.53105  0.87831  0.43093  1.0000
  C   C39       1.0  0.62032  0.95258  0.49478  1.0000
  C   C40       1.0  0.68458  0.94560  0.56132  1.0000
  H   H21       1.0  0.70952  0.85871  0.61562  1.0000
  O  Te5       1.0  0.41731  0.72048  0.37087  1.0000
  O  Te6       1.0  0.46769  0.88639  0.36489  1.0000
  H   H22       1.0  0.75353  0.00339  0.61046  1.0000
  Mg  Mg3       1.0  0.35532  0.76495  0.29394  1.0000
  C   C41       1.0  0.21001  0.45011  0.91836  1.0000
  C   C42       1.0  0.28059  0.44330  0.95258  1.0000
  C  Sn7       1.0  0.26636  0.37111  0.97906  1.0000
  C  Sn8       1.0  0.17979  0.30458  0.97100  1.0000
  C   C43       1.0  0.10961  0.31196  0.93654  1.0000
  C   C44       1.0  0.12460  0.38450  0.91030  1.0000
  H   H23       1.0  0.22158  0.50619  0.89794  1.0000
  O  Te7       1.0  0.22655  0.09133  0.01319  1.0000
  O  Te8       1.0  0.68601  0.23170  0.99689  1.0000
  H   H24       1.0  0.06993  0.38971  0.88367  1.0000
  Mg  Mg4       1.0  0.69354  0.97943  0.03951  1.0000
  C   C45       1.0  0.68250  0.56201  0.48144  1.0000
  C   C46       1.0  0.59225  0.52654  0.45782  1.0000
  C  Sn9       1.0  0.53524  0.44428  0.46061  1.0000
  C  Sn10      1.0  0.56941  0.39684  0.48764  1.0000
  C   C47       1.0  0.65981  0.43295  0.51129  1.0000
  C   C48       1.0  0.71626  0.51529  0.50818  1.0000
  H   H25       1.0  0.72619  0.62575  0.47915  1.0000
  O  Te9       1.0  0.44525  0.40978  0.43672  1.0000
  O  Te10      1.0  0.51392  0.31452  0.49111  1.0000
  H   H26       1.0  0.78614  0.54278  0.52660  1.0000
  Mg  Mg5       1.0  0.39616  0.29515  0.45216  1.0000
  C   C49       1.0  0.20745  0.50918  0.43495  1.0000
  C   C50       1.0  0.27676  0.49786  0.45450  1.0000
  C  Sn11      1.0  0.26212  0.42420  0.47623  1.0000
  C  Sn12      1.0  0.17643  0.36080  0.47832  1.0000
  C   C51       1.0  0.10751  0.37269  0.45852  1.0000
  C   C52       1.0  0.12290  0.44666  0.43693  1.0000
  H   H27       1.0  0.21933  0.56637  0.41813  1.0000
  O  Te11      1.0  0.33212  0.41393  0.49565  1.0000
  O  Te12      1.0  0.15995  0.28655  0.49976  1.0000
  H   H28       1.0  0.06921  0.45536  0.42167  1.0000
  Mg  Mg6       1.0  0.27673  0.30179  0.52118  1.0000
