data_image0
_chemical_formula_structural       H16C28N8O2SnCSn2CSnTe4Mg2SnCSn2CSnTe4Mg2SnCSn2CSnTe4Mg2SnCSn2CSnTe4Mg2SnCSn2CSnTe4Mg2SnCSn2CSnTe4Mg2
_chemical_formula_sum              "H16 C40 N8 O2 Sn24 Te24 Mg12"
_cell_length_a       17.9795
_cell_length_b       19.0319
_cell_length_c       8.05921
_cell_angle_alpha    121.659
_cell_angle_beta     85.8991
_cell_angle_gamma    119.566

_symmetry_space_group_name_H-M    'P1'
_space_group_IT_number       1

loop_
  _space_group_symop_operation_xyz
  'x, y, z'

loop_
  _atom_site_type_symbol
  _atom_site_label
  _atom_site_symmetry_multiplicity
  _atom_site_fract_x
  _atom_site_fract_y
  _atom_site_fract_z
  _atom_site_occupancy
  H   H1        1.0  0.63127  0.62568  0.95347  1.0000
  H   H2        1.0  0.38128  0.60184  0.96283  1.0000
  H   H3        1.0  0.63204  0.26099  0.07164  1.0000
  H   H4        1.0  0.89410  0.15043  0.02918  1.0000
  H   H5        1.0  0.86603  0.36406  0.03786  1.0000
  H   H6        1.0  0.00615  0.38453  0.04903  1.0000
  H   H7        1.0  0.77832  0.01740  0.00767  1.0000
  H   H8        1.0  0.60288  0.15902  0.06813  1.0000
  H   H9        1.0  0.62664  0.67439  0.44647  1.0000
  H   H10       1.0  0.37821  0.65406  0.45370  1.0000
  H   H11       1.0  0.62455  0.31095  0.57951  1.0000
  H   H12       1.0  0.89213  0.20668  0.53779  1.0000
  H   H13       1.0  0.85906  0.41877  0.55255  1.0000
  H   H14       1.0  0.00031  0.44132  0.55935  1.0000
  H   H15       1.0  0.77834  0.07194  0.51236  1.0000
  H   H16       1.0  0.59942  0.21278  0.59404  1.0000
  C   C1        1.0  0.52396  0.50424  0.95463  1.0000
  C   C2        1.0  0.56241  0.58902  0.95575  1.0000
  C   C3        1.0  0.51168  0.62657  0.95840  1.0000
  C   C4        1.0  0.42244  0.57389  0.95388  1.0000
  C   C5        1.0  0.38714  0.48775  0.94648  1.0000
  C   C6        1.0  0.69977  0.29479  0.05426  1.0000
  C   C7        1.0  0.75231  0.25676  0.05723  1.0000
  C   C8        1.0  0.71538  0.17305  0.06319  1.0000
  C   C9        1.0  0.76649  0.13318  0.05245  1.0000
  C   C10       1.0  0.85346  0.17910  0.03652  1.0000
  C   C11       1.0  0.89133  0.26284  0.03313  1.0000
  C   C12       1.0  0.83997  0.30053  0.04419  1.0000
  C   C13       1.0  0.98137  0.31175  0.01638  1.0000
  C   C14       1.0  0.73199  0.04236  0.03938  1.0000
  C   C15       1.0  0.51847  0.55462  0.45060  1.0000
  C   C16       1.0  0.55767  0.63849  0.44817  1.0000
  C   C17       1.0  0.50786  0.67659  0.44893  1.0000
  C   C18       1.0  0.41853  0.62526  0.44558  1.0000
  C   C19       1.0  0.38261  0.54042  0.44352  1.0000
  C   C20       1.0  0.69060  0.34199  0.55236  1.0000
  C   C21       1.0  0.74546  0.30718  0.56144  1.0000
  C   C22       1.0  0.71040  0.22392  0.56799  1.0000
  C   C23       1.0  0.76369  0.18637  0.55829  1.0000
  C   C24       1.0  0.85090  0.23491  0.54696  1.0000
  C   C25       1.0  0.88776  0.31981  0.54852  1.0000
  C   C26       1.0  0.83409  0.35459  0.55574  1.0000
  C   C27       1.0  0.97795  0.37050  0.53423  1.0000
  C   C28       1.0  0.73100  0.09542  0.54240  1.0000
  N   N1        1.0  0.43752  0.45378  0.94695  1.0000
  N   N2        1.0  0.72974  0.36399  0.02586  1.0000
  N   N3        1.0  0.02898  0.27394  0.96796  1.0000
  N   N4        1.0  0.65266  0.04359  0.55224  1.0000
  N   N5        1.0  0.43226  0.50624  0.44662  1.0000
  N   N6        1.0  0.71810  0.40648  0.51013  1.0000
  N   N7        1.0  0.02765  0.33524  0.49328  1.0000
  N   N8        1.0  0.65390  0.99189  0.05269  1.0000
  O   O1        1.0  0.62581  0.17602  0.57711  1.0000
  O   O2        1.0  0.63074  0.12744  0.07482  1.0000
  C  Sn1       1.0  0.67816  0.49169  0.92171  1.0000
  C   C29       1.0  0.58841  0.45687  0.91013  1.0000
  C  Sn2       1.0  0.53885  0.39174  0.96478  1.0000
  C  Sn3       1.0  0.46878  0.08678  0.03255  1.0000
  C   C30       1.0  0.55848  0.12161  0.04414  1.0000
  C  Sn4       1.0  0.71917  0.46076  0.98948  1.0000
  O  Te1       1.0  0.72643  0.55675  0.86631  1.0000
  O  Te2       1.0  0.44921  0.35791  0.95186  1.0000
  O  Te3       1.0  0.94273  0.02166  0.08795  1.0000
  O  Te4       1.0  0.69767  0.22056  0.00241  1.0000
  Mg  Mg1       1.0  0.82261  0.99614  0.04434  1.0000
  Mg  Mg2       1.0  0.84665  0.58237  0.91006  1.0000
  C  Sn5       1.0  0.50448  0.74828  0.86220  1.0000
  C   C31       1.0  0.54680  0.71530  0.91511  1.0000
  C  Sn6       1.0  0.51972  0.50730  0.04784  1.0000
  C  Sn7       1.0  0.56230  0.60842  0.12951  1.0000
  C   C32       1.0  0.51999  0.64136  0.07663  1.0000
  C  Sn8       1.0  0.54706  0.84940  0.94387  1.0000
  O  Te5       1.0  0.42051  0.68096  0.72925  1.0000
  O  Te6       1.0  0.56071  0.47258  0.09843  1.0000
  O  Te7       1.0  0.64633  0.67574  0.26255  1.0000
  O  Te8       1.0  0.50608  0.88408  0.89331  1.0000
  Mg  Mg3       1.0  0.67510  0.59288  0.28573  1.0000
  Mg  Mg4       1.0  0.39167  0.76386  0.70611  1.0000
  C  Sn9       1.0  0.64883  0.87358  0.61889  1.0000
  C   C33       1.0  0.56055  0.79571  0.53524  1.0000
  C  Sn10      1.0  0.50195  0.79179  0.42107  1.0000
  C  Sn11      1.0  0.53222  0.86724  0.38973  1.0000
  C   C34       1.0  0.62046  0.94504  0.47332  1.0000
  C  Sn12      1.0  0.67911  0.94903  0.58756  1.0000
  O  Te9       1.0  0.70626  0.87601  0.73250  1.0000
  O  Te10      1.0  0.41399  0.71322  0.33902  1.0000
  O  Te11      1.0  0.47471  0.86476  0.27602  1.0000
  O  Te12      1.0  0.76702  0.02753  0.66954  1.0000
  Mg  Mg5       1.0  0.36108  0.74259  0.19535  1.0000
  Mg  Mg6       1.0  0.81999  0.99821  0.81314  1.0000
  C  Sn13      1.0  0.09000  0.05351  0.02948  1.0000
  C   C35       1.0  0.02165  0.06571  0.00718  1.0000
  C  Sn14      1.0  0.14145  0.39393  0.93128  1.0000
  C  Sn15      1.0  0.22010  0.43678  0.87640  1.0000
  C   C36       1.0  0.28839  0.42456  0.89867  1.0000
  C  Sn16      1.0  0.27973  0.37039  0.97460  1.0000
  O  Te13      1.0  0.60215  0.99904  0.10565  1.0000
  O  Te14      1.0  0.07223  0.40514  0.91042  1.0000
  O  Te15      1.0  0.23021  0.49129  0.80018  1.0000
  O  Te16      1.0  0.34889  0.35917  0.99543  1.0000
  Mg  Mg7       1.0  0.11739  0.48582  0.79961  1.0000
  Mg  Mg8       1.0  0.71501  0.00443  0.10612  1.0000
  C  Sn17      1.0  0.55277  0.37994  0.42152  1.0000
  C   C37       1.0  0.64273  0.41488  0.43769  1.0000
  C  Sn18      1.0  0.70226  0.50930  0.48628  1.0000
  C  Sn19      1.0  0.67124  0.57009  0.51953  1.0000
  C   C38       1.0  0.58134  0.53516  0.50339  1.0000
  C  Sn20      1.0  0.52175  0.44074  0.45477  1.0000
  O  Te17      1.0  0.49444  0.28530  0.37279  1.0000
  O  Te18      1.0  0.79189  0.54259  0.50152  1.0000
  O  Te19      1.0  0.72966  0.66479  0.56828  1.0000
  O  Te20      1.0  0.43218  0.40744  0.43956  1.0000
  Mg  Mg9       1.0  0.84552  0.67701  0.57165  1.0000
  Mg  Mg10      1.0  0.37850  0.27306  0.36955  1.0000
  C  Sn21      1.0  0.19833  0.38371  0.53703  1.0000
  C   C39       1.0  0.13077  0.39832  0.52267  1.0000
  C  Sn22      1.0  0.13911  0.45363  0.45006  1.0000
  C  Sn23      1.0  0.21656  0.49516  0.39043  1.0000
  C   C40       1.0  0.28405  0.48053  0.40477  1.0000
  C  Sn24      1.0  0.27578  0.42525  0.47740  1.0000
  O  Te21      1.0  0.18858  0.32816  0.61004  1.0000
  O  Te22      1.0  0.07069  0.46724  0.43714  1.0000
  O  Te23      1.0  0.22626  0.55075  0.31738  1.0000
  O  Te24      1.0  0.34413  0.41161  0.49030  1.0000
  Mg  Mg11      1.0  0.11488  0.54860  0.32793  1.0000
  Mg  Mg12      1.0  0.30000  0.33023  0.59938  1.0000
