data_image0
_chemical_formula_structural       H28C46N8O2SnCSn2CSnTe4Mg2SnCSn2CSnTe4Mg2SnCSn2CSnTe4Mg2
_chemical_formula_sum              "H28 C52 N8 O2 Sn12 Te12 Mg6"
_cell_length_a       17.9795
_cell_length_b       19.0319
_cell_length_c       8.05921
_cell_angle_alpha    121.659
_cell_angle_beta     85.8991
_cell_angle_gamma    119.566

_symmetry_space_group_name_H-M    'P1'
_space_group_IT_number       1

loop_
  _space_group_symop_operation_xyz
  'x, y, z'

loop_
  _atom_site_type_symbol
  _atom_site_label
  _atom_site_symmetry_multiplicity
  _atom_site_fract_x
  _atom_site_fract_y
  _atom_site_fract_z
  _atom_site_occupancy
  H   H1        1.0  0.63127  0.62568  0.95347  1.0000
  H   H2        1.0  0.38128  0.60184  0.96283  1.0000
  H   H3        1.0  0.49243  0.90242  0.39717  1.0000
  H   H4        1.0  0.30844  0.33472  0.97889  1.0000
  H   H5        1.0  0.14727  0.29712  0.49042  1.0000
  H   H6        1.0  0.10026  0.42195  0.90649  1.0000
  H   H7        1.0  0.25327  0.51318  0.90365  1.0000
  H   H8        1.0  0.63204  0.26099  0.07164  1.0000
  H   H9        1.0  0.89410  0.15043  0.02918  1.0000
  H   H10       1.0  0.86603  0.36406  0.03786  1.0000
  H   H11       1.0  0.00615  0.38453  0.04903  1.0000
  H   H12       1.0  0.77832  0.01740  0.00767  1.0000
  H   H13       1.0  0.60288  0.15902  0.06813  1.0000
  H   H14       1.0  0.62664  0.67439  0.44647  1.0000
  H   H15       1.0  0.37821  0.65406  0.45370  1.0000
  H   H16       1.0  0.42612  0.73842  0.33511  1.0000
  H   H17       1.0  0.74717  0.98531  0.64778  1.0000
  H   H18       1.0  0.68057  0.82677  0.60659  1.0000
  H   H19       1.0  0.30338  0.38698  0.47388  1.0000
  H   H20       1.0  0.15082  0.24167  0.98567  1.0000
  H   H21       1.0  0.09977  0.48635  0.43990  1.0000
  H   H22       1.0  0.25033  0.57113  0.41663  1.0000
  H   H23       1.0  0.62455  0.31095  0.57951  1.0000
  H   H24       1.0  0.89213  0.20668  0.53779  1.0000
  H   H25       1.0  0.85906  0.41877  0.55255  1.0000
  H   H26       1.0  0.00031  0.44132  0.55935  1.0000
  H   H27       1.0  0.77834  0.07194  0.51236  1.0000
  H   H28       1.0  0.59942  0.21278  0.59404  1.0000
  C   C1        1.0  0.52396  0.50424  0.95463  1.0000
  C   C2        1.0  0.56241  0.58902  0.95575  1.0000
  C   C3        1.0  0.51168  0.62657  0.95840  1.0000
  C   C4        1.0  0.42244  0.57389  0.95388  1.0000
  C   C5        1.0  0.38714  0.48775  0.94648  1.0000
  C   C6        1.0  0.29352  0.43207  0.94587  1.0000
  C   C7        1.0  0.53253  0.88373  0.43988  1.0000
  C   C8        1.0  0.62372  0.95436  0.52433  1.0000
  C   C9        1.0  0.26207  0.35320  0.96413  1.0000
  C   C10       1.0  0.17465  0.30152  0.96794  1.0000
  C   C11       1.0  0.11524  0.32742  0.95565  1.0000
  C   C12       1.0  0.14576  0.40440  0.93088  1.0000
  C   C13       1.0  0.23299  0.45562  0.92689  1.0000
  C   C14       1.0  0.69977  0.29479  0.05426  1.0000
  C   C15       1.0  0.75231  0.25676  0.05723  1.0000
  C   C16       1.0  0.71538  0.17305  0.06319  1.0000
  C   C17       1.0  0.76649  0.13318  0.05245  1.0000
  C   C18       1.0  0.85346  0.17910  0.03652  1.0000
  C   C19       1.0  0.89133  0.26284  0.03313  1.0000
  C   C20       1.0  0.83997  0.30053  0.04419  1.0000
  C   C21       1.0  0.98137  0.31175  0.01638  1.0000
  C   C22       1.0  0.73199  0.04236  0.03938  1.0000
  C   C23       1.0  0.51847  0.55462  0.45060  1.0000
  C   C24       1.0  0.55767  0.63849  0.44817  1.0000
  C   C25       1.0  0.50786  0.67659  0.44893  1.0000
  C   C26       1.0  0.41853  0.62526  0.44558  1.0000
  C   C27       1.0  0.38261  0.54042  0.44352  1.0000
  C   C28       1.0  0.54821  0.76979  0.46640  1.0000
  C   C29       1.0  0.28970  0.48734  0.45014  1.0000
  C   C30       1.0  0.49613  0.79295  0.40784  1.0000
  C   C31       1.0  0.67690  0.93107  0.57864  1.0000
  C   C32       1.0  0.63924  0.84096  0.55242  1.0000
  C   C33       1.0  0.25802  0.40804  0.46710  1.0000
  C   C34       1.0  0.17129  0.35825  0.47692  1.0000
  C   C35       1.0  0.11299  0.38721  0.47485  1.0000
  C   C36       1.0  0.14402  0.46505  0.45269  1.0000
  C   C37       1.0  0.23011  0.51347  0.43951  1.0000
  C   C38       1.0  0.69060  0.34199  0.55236  1.0000
  C   C39       1.0  0.74546  0.30718  0.56144  1.0000
  C   C40       1.0  0.71040  0.22392  0.56799  1.0000
  C   C41       1.0  0.76369  0.18637  0.55829  1.0000
  C   C42       1.0  0.85090  0.23491  0.54696  1.0000
  C   C43       1.0  0.88776  0.31981  0.54852  1.0000
  C   C44       1.0  0.83409  0.35459  0.55574  1.0000
  C   C45       1.0  0.97795  0.37050  0.53423  1.0000
  C   C46       1.0  0.73100  0.09542  0.54240  1.0000
  N   N1        1.0  0.43752  0.45378  0.94695  1.0000
  N   N2        1.0  0.72974  0.36399  0.02586  1.0000
  N   N3        1.0  0.02898  0.27394  0.96796  1.0000
  N   N4        1.0  0.65266  0.04359  0.55224  1.0000
  N   N5        1.0  0.43226  0.50624  0.44662  1.0000
  N   N6        1.0  0.71810  0.40648  0.51013  1.0000
  N   N7        1.0  0.02765  0.33524  0.49328  1.0000
  N   N8        1.0  0.65390  0.99189  0.05269  1.0000
  O   O1        1.0  0.62581  0.17602  0.57711  1.0000
  O   O2        1.0  0.63074  0.12744  0.07482  1.0000
  C  Sn1       1.0  0.66978  0.53853  0.41492  1.0000
  C   C47       1.0  0.58112  0.50750  0.41240  1.0000
  C  Sn2       1.0  0.53171  0.44343  0.46961  1.0000
  C  Sn3       1.0  0.57175  0.40971  0.53074  1.0000
  C   C48       1.0  0.66035  0.44074  0.53327  1.0000
  C  Sn4       1.0  0.70982  0.50480  0.47605  1.0000
  O  Te1       1.0  0.71792  0.60261  0.35713  1.0000
  O  Te2       1.0  0.44317  0.41341  0.46579  1.0000
  O  Te3       1.0  0.52352  0.34558  0.58855  1.0000
  O  Te4       1.0  0.79830  0.53483  0.47988  1.0000
  Mg  Mg1       1.0  0.40507  0.32561  0.55819  1.0000
  Mg  Mg2       1.0  0.83647  0.62266  0.38761  1.0000
  C  Sn5       1.0  0.50448  0.74828  0.86220  1.0000
  C   C49       1.0  0.54680  0.71530  0.91511  1.0000
  C  Sn6       1.0  0.51972  0.50730  0.04784  1.0000
  C  Sn7       1.0  0.56230  0.60842  0.12951  1.0000
  C   C50       1.0  0.51999  0.64136  0.07663  1.0000
  C  Sn8       1.0  0.54706  0.84940  0.94387  1.0000
  O  Te5       1.0  0.42051  0.68096  0.72925  1.0000
  O  Te6       1.0  0.56071  0.47258  0.09843  1.0000
  O  Te7       1.0  0.64633  0.67574  0.26255  1.0000
  O  Te8       1.0  0.50608  0.88408  0.89331  1.0000
  Mg  Mg3       1.0  0.67510  0.59288  0.28573  1.0000
  Mg  Mg4       1.0  0.39167  0.76386  0.70611  1.0000
  C  Sn9       1.0  0.43435  0.11226  0.03519  1.0000
  C   C51       1.0  0.46539  0.19277  0.02458  1.0000
  C  Sn10      1.0  0.65807  0.50699  0.98205  1.0000
  C  Sn11      1.0  0.70972  0.46583  0.94929  1.0000
  C   C52       1.0  0.67868  0.38537  0.95987  1.0000
  C  Sn12      1.0  0.48600  0.07110  0.00244  1.0000
  O  Te9       1.0  0.35257  0.07327  0.07791  1.0000
  O  Te10      1.0  0.68772  0.58750  0.97230  1.0000
  O  Te11      1.0  0.79156  0.50490  0.90655  1.0000
  O  Te12      1.0  0.97865  0.99063  0.01216  1.0000
  Mg  Mg5       1.0  0.80347  0.61461  0.90926  1.0000
  Mg  Mg6       1.0  0.86289  0.96343  0.07507  1.0000
