data_image0
_chemical_formula_structural       H28C46N8O2C2Sn2C2HTe2HMgC2Sn2C2HTe2HMgC2Sn2C2HTe2HMg
_chemical_formula_sum              "H34 C58 N8 O2 Sn6 Te6 Mg3"
_cell_length_a       17.9795
_cell_length_b       19.0319
_cell_length_c       8.05921
_cell_angle_alpha    121.659
_cell_angle_beta     85.8991
_cell_angle_gamma    119.566

_symmetry_space_group_name_H-M    'P1'
_space_group_IT_number       1

loop_
  _space_group_symop_operation_xyz
  'x, y, z'

loop_
  _atom_site_type_symbol
  _atom_site_label
  _atom_site_symmetry_multiplicity
  _atom_site_fract_x
  _atom_site_fract_y
  _atom_site_fract_z
  _atom_site_occupancy
  H   H1        1.0  0.54771  0.28044  0.98948  1.0000
  H   H2        1.0  0.46514  0.34729  0.96267  1.0000
  H   H3        1.0  0.70189  0.57487  0.96973  1.0000
  H   H4        1.0  0.78609  0.51092  0.00615  1.0000
  H   H5        1.0  0.63127  0.62568  0.95347  1.0000
  H   H6        1.0  0.38128  0.60184  0.96283  1.0000
  H   H7        1.0  0.49243  0.90242  0.39717  1.0000
  H   H8        1.0  0.63204  0.26099  0.07164  1.0000
  H   H9        1.0  0.89410  0.15043  0.02918  1.0000
  H   H10       1.0  0.86603  0.36406  0.03786  1.0000
  H   H11       1.0  0.00615  0.38453  0.04903  1.0000
  H   H12       1.0  0.77832  0.01740  0.00767  1.0000
  H   H13       1.0  0.60288  0.15902  0.06813  1.0000
  H   H14       1.0  0.53798  0.32992  0.49052  1.0000
  H   H15       1.0  0.45731  0.39876  0.46299  1.0000
  H   H16       1.0  0.69603  0.62330  0.46728  1.0000
  H   H17       1.0  0.77681  0.55322  0.49024  1.0000
  H   H18       1.0  0.62664  0.67439  0.44647  1.0000
  H   H19       1.0  0.37821  0.65406  0.45370  1.0000
  H   H20       1.0  0.42612  0.73842  0.33511  1.0000
  H   H21       1.0  0.74717  0.98531  0.64778  1.0000
  H   H22       1.0  0.68057  0.82677  0.60659  1.0000
  H   H23       1.0  0.62455  0.31095  0.57951  1.0000
  H   H24       1.0  0.89213  0.20668  0.53779  1.0000
  H   H25       1.0  0.85906  0.41877  0.55255  1.0000
  H   H26       1.0  0.00031  0.44132  0.55935  1.0000
  H   H27       1.0  0.77834  0.07194  0.51236  1.0000
  H   H28       1.0  0.59942  0.21278  0.59404  1.0000
  C   C1        1.0  0.67493  0.39330  0.00633  1.0000
  C   C2        1.0  0.58287  0.34570  0.98787  1.0000
  C   C3        1.0  0.53555  0.38237  0.97145  1.0000
  C   C4        1.0  0.57667  0.46629  0.96713  1.0000
  C   C5        1.0  0.66767  0.51146  0.97775  1.0000
  C   C6        1.0  0.71567  0.47578  0.99708  1.0000
  C   C7        1.0  0.52396  0.50424  0.95463  1.0000
  C   C8        1.0  0.56241  0.58902  0.95575  1.0000
  C   C9        1.0  0.51168  0.62657  0.95840  1.0000
  C   C10       1.0  0.42244  0.57389  0.95388  1.0000
  C   C11       1.0  0.38714  0.48775  0.94648  1.0000
  C   C12       1.0  0.53253  0.88373  0.43988  1.0000
  C   C13       1.0  0.62372  0.95436  0.52433  1.0000
  C   C14       1.0  0.69977  0.29479  0.05426  1.0000
  C   C15       1.0  0.75231  0.25676  0.05723  1.0000
  C   C16       1.0  0.71538  0.17305  0.06319  1.0000
  C   C17       1.0  0.76649  0.13318  0.05245  1.0000
  C   C18       1.0  0.85346  0.17910  0.03652  1.0000
  C   C19       1.0  0.89133  0.26284  0.03313  1.0000
  C   C20       1.0  0.83997  0.30053  0.04419  1.0000
  C   C21       1.0  0.98137  0.31175  0.01638  1.0000
  C   C22       1.0  0.73199  0.04236  0.03938  1.0000
  C   C23       1.0  0.66474  0.43823  0.49544  1.0000
  C   C24       1.0  0.57349  0.39427  0.48581  1.0000
  C   C25       1.0  0.52752  0.43236  0.47030  1.0000
  C   C26       1.0  0.56992  0.51567  0.46377  1.0000
  C   C27       1.0  0.66077  0.55934  0.47315  1.0000
  C   C28       1.0  0.70691  0.52074  0.48644  1.0000
  C   C29       1.0  0.51847  0.55462  0.45060  1.0000
  C   C30       1.0  0.55767  0.63849  0.44817  1.0000
  C   C31       1.0  0.50786  0.67659  0.44893  1.0000
  C   C32       1.0  0.41853  0.62526  0.44558  1.0000
  C   C33       1.0  0.38261  0.54042  0.44352  1.0000
  C   C34       1.0  0.54821  0.76979  0.46640  1.0000
  C   C35       1.0  0.49613  0.79295  0.40784  1.0000
  C   C36       1.0  0.67690  0.93107  0.57864  1.0000
  C   C37       1.0  0.63924  0.84096  0.55242  1.0000
  C   C38       1.0  0.69060  0.34199  0.55236  1.0000
  C   C39       1.0  0.74546  0.30718  0.56144  1.0000
  C   C40       1.0  0.71040  0.22392  0.56799  1.0000
  C   C41       1.0  0.76369  0.18637  0.55829  1.0000
  C   C42       1.0  0.85090  0.23491  0.54696  1.0000
  C   C43       1.0  0.88776  0.31981  0.54852  1.0000
  C   C44       1.0  0.83409  0.35459  0.55574  1.0000
  C   C45       1.0  0.97795  0.37050  0.53423  1.0000
  C   C46       1.0  0.73100  0.09542  0.54240  1.0000
  N   N1        1.0  0.43752  0.45378  0.94695  1.0000
  N   N2        1.0  0.72974  0.36399  0.02586  1.0000
  N   N3        1.0  0.02898  0.27394  0.96796  1.0000
  N   N4        1.0  0.65266  0.04359  0.55224  1.0000
  N   N5        1.0  0.43226  0.50624  0.44662  1.0000
  N   N6        1.0  0.71810  0.40648  0.51013  1.0000
  N   N7        1.0  0.02765  0.33524  0.49328  1.0000
  N   N8        1.0  0.65390  0.99189  0.05269  1.0000
  O   O1        1.0  0.62581  0.17602  0.57711  1.0000
  O   O2        1.0  0.63074  0.12744  0.07482  1.0000
  C   C47       1.0  0.19641  0.30347  0.96517  1.0000
  C   C48       1.0  0.12942  0.32071  0.96408  1.0000
  C  Sn1       1.0  0.14408  0.39416  0.94158  1.0000
  C  Sn2       1.0  0.22741  0.45127  0.91974  1.0000
  C   C49       1.0  0.29398  0.43340  0.92088  1.0000
  C   C50       1.0  0.27861  0.35974  0.94356  1.0000
  H   H29       1.0  0.70682  0.24645  0.98260  1.0000
  O  Te1       1.0  0.07643  0.41044  0.94090  1.0000
  O  Te2       1.0  0.24383  0.52512  0.89694  1.0000
  H   H30       1.0  0.33047  0.34637  0.94426  1.0000
  Mg  Mg1       1.0  0.13077  0.51948  0.90550  1.0000
  C   C51       1.0  0.16213  0.48625  0.45236  1.0000
  C   C52       1.0  0.11801  0.40394  0.45985  1.0000
  C  Sn3       1.0  0.16328  0.36376  0.47098  1.0000
  C  Sn4       1.0  0.25441  0.40695  0.47471  1.0000
  C   C53       1.0  0.29796  0.48933  0.46730  1.0000
  C   C54       1.0  0.25202  0.52893  0.45612  1.0000
  H   H31       1.0  0.12661  0.51693  0.44382  1.0000
  O  Te3       1.0  0.11818  0.28148  0.47827  1.0000
  O  Te4       1.0  0.30125  0.36830  0.48586  1.0000
  H   H32       1.0  0.28621  0.59269  0.45045  1.0000
  Mg  Mg2       1.0  0.21072  0.25554  0.49259  1.0000
  C   C55       1.0  0.49424  0.75977  0.91722  1.0000
  C   C56       1.0  0.53646  0.72138  0.94952  1.0000
  C  Sn5       1.0  0.51636  0.50494  0.03544  1.0000
  C  Sn6       1.0  0.56579  0.60275  0.08993  1.0000
  C   C57       1.0  0.52292  0.64049  0.05712  1.0000
  C   C58       1.0  0.54295  0.85625  0.97099  1.0000
  H   H33       1.0  0.42379  0.71470  0.85068  1.0000
  O  Te5       1.0  0.55750  0.46542  0.06661  1.0000
  O  Te6       1.0  0.65678  0.66193  0.17613  1.0000
  H   H34       1.0  0.51027  0.88601  0.94611  1.0000
  Mg  Mg3       1.0  0.68291  0.57495  0.18862  1.0000
