data_image0
_chemical_formula_structural       H72C90N24SnCSn2CSnTe4Mg2SnCSn2CSnTe4Mg2SnCSn2CSnTe4Mg2SnCSn2CSnTe4Mg2SnCSn2CSnTe4Mg2SnCSn2CSnTe4Mg2SnCSn2CSnTe4Mg2SnCSn2CSnTe4Mg2SnCSn2CSnTe4Mg2SnCSn2CSnTe4Mg2SnCSn2CSnTe4Mg2SnCSn2CSnTe4Mg2
_chemical_formula_sum              "H72 C114 N24 Sn48 Te48 Mg24"
_cell_length_a       37.4845
_cell_length_b       37.1936
_cell_length_c       7.94895
_cell_angle_alpha    90.9267
_cell_angle_beta     89.0722
_cell_angle_gamma    120.02

_symmetry_space_group_name_H-M    'P1'
_space_group_IT_number       1

loop_
  _space_group_symop_operation_xyz
  'x, y, z'

loop_
  _atom_site_type_symbol
  _atom_site_label
  _atom_site_symmetry_multiplicity
  _atom_site_fract_x
  _atom_site_fract_y
  _atom_site_fract_z
  _atom_site_occupancy
  H   H1        1.0  0.30162  0.59026  0.26705  1.0000
  H   H2        1.0  0.41035  0.71084  0.26754  1.0000
  H   H3        1.0  0.29060  0.69968  0.26046  1.0000
  H   H4        1.0  0.41123  0.51710  0.35127  1.0000
  H   H5        1.0  0.48097  0.89339  0.33963  1.0000
  H   H6        1.0  0.10826  0.58547  0.35453  1.0000
  H   H7        1.0  0.51906  0.58930  0.14079  1.0000
  H   H8        1.0  0.41231  0.92978  0.11992  1.0000
  H   H9        1.0  0.07296  0.47854  0.13420  1.0000
  H   H10       1.0  0.58690  0.60218  0.50772  1.0000
  H   H11       1.0  0.40023  0.98884  0.50449  1.0000
  H   H12       1.0  0.00731  0.40598  0.51705  1.0000
  H   H13       1.0  0.70203  0.41247  0.25814  1.0000
  H   H14       1.0  0.59343  0.29176  0.26854  1.0000
  H   H15       1.0  0.71315  0.30301  0.25759  1.0000
  H   H16       1.0  0.55859  0.46235  0.12788  1.0000
  H   H17       1.0  0.53349  0.09629  0.14199  1.0000
  H   H18       1.0  0.90709  0.42553  0.20243  1.0000
  H   H19       1.0  0.59840  0.07899  0.45118  1.0000
  H   H20       1.0  0.92860  0.51605  0.51668  1.0000
  H   H21       1.0  0.47537  0.39496  0.40425  1.0000
  H   H22       1.0  0.61510  0.04909  0.33366  1.0000
  H   H23       1.0  0.93928  0.54822  0.34409  1.0000
  H   H24       1.0  0.42521  0.38512  0.34904  1.0000
  H   H25       1.0  0.58941  0.04938  0.02849  1.0000
  H   H26       1.0  0.95691  0.54396  0.06762  1.0000
  H   H27       1.0  0.46227  0.40861  0.02379  1.0000
  H   H28       1.0  0.58410  0.97641  0.39012  1.0000
  H   H29       1.0  0.03225  0.60824  0.39304  1.0000
  H   H30       1.0  0.38440  0.45124  0.35526  1.0000
  H   H31       1.0  0.53959  0.92706  0.36931  1.0000
  H   H32       1.0  0.07609  0.60519  0.44803  1.0000
  H   H33       1.0  0.40712  0.46428  0.55716  1.0000
  H   H34       1.0  0.56194  0.97705  0.04295  1.0000
  H   H35       1.0  0.02540  0.58327  0.07839  1.0000
  H   H36       1.0  0.41383  0.43592  0.05096  1.0000
  H   H37       1.0  0.29896  0.58826  0.76638  1.0000
  H   H38       1.0  0.40689  0.70937  0.76394  1.0000
  H   H39       1.0  0.28671  0.69703  0.76218  1.0000
  H   H40       1.0  0.41140  0.51752  0.84661  1.0000
  H   H41       1.0  0.47966  0.89292  0.83212  1.0000
  H   H42       1.0  0.10460  0.58410  0.84280  1.0000
  H   H43       1.0  0.51665  0.59192  0.63119  1.0000
  H   H44       1.0  0.40776  0.92716  0.62303  1.0000
  H   H45       1.0  0.06923  0.47471  0.63996  1.0000
  H   H46       1.0  0.58721  0.59506  0.01520  1.0000
  H   H47       1.0  0.40694  0.99263  0.99956  1.0000
  H   H48       1.0  0.01101  0.40847  0.01888  1.0000
  H   H49       1.0  0.70045  0.41085  0.74771  1.0000
  H   H50       1.0  0.59000  0.29188  0.76757  1.0000
  H   H51       1.0  0.70818  0.29941  0.74645  1.0000
  H   H52       1.0  0.56625  0.47190  0.62163  1.0000
  H   H53       1.0  0.53103  0.09582  0.62415  1.0000
  H   H54       1.0  0.90464  0.42986  0.65395  1.0000
  H   H55       1.0  0.60426  0.07931  0.84497  1.0000
  H   H56       1.0  0.91938  0.52043  0.90892  1.0000
  H   H57       1.0  0.47444  0.39436  0.82905  1.0000
  H   H58       1.0  0.60732  0.03283  0.85229  1.0000
  H   H59       1.0  0.96317  0.57108  0.87891  1.0000
  H   H60       1.0  0.42558  0.39114  0.86028  1.0000
  H   H61       1.0  0.59285  0.03254  0.53584  1.0000
  H   H62       1.0  0.97250  0.56674  0.52112  1.0000
  H   H63       1.0  0.44610  0.40623  0.54896  1.0000
  H   H64       1.0  0.57363  0.96290  0.84507  1.0000
  H   H65       1.0  0.03237  0.60736  0.88157  1.0000
  H   H66       1.0  0.38934  0.42246  0.85275  1.0000
  H   H67       1.0  0.52845  0.92761  0.95686  1.0000
  H   H68       1.0  0.07206  0.60073  0.96624  1.0000
  H   H69       1.0  0.39675  0.46766  0.96090  1.0000
  H   H70       1.0  0.54760  0.95657  0.55646  1.0000
  H   H71       1.0  0.03342  0.58593  0.58669  1.0000
  H   H72       1.0  0.39578  0.41678  0.46025  1.0000
  C   C1        1.0  0.29070  0.64187  0.26371  1.0000
  C   C2        1.0  0.35898  0.64822  0.26818  1.0000
  C   C3        1.0  0.35273  0.71066  0.26302  1.0000
  C   C4        1.0  0.31586  0.62390  0.26661  1.0000
  C   C5        1.0  0.37695  0.69160  0.26672  1.0000
  C   C6        1.0  0.30970  0.68532  0.26251  1.0000
  C   C7        1.0  0.44326  0.53403  0.30628  1.0000
  C   C8        1.0  0.46540  0.90927  0.29058  1.0000
  C   C9        1.0  0.09288  0.55369  0.30415  1.0000
  C   C10       1.0  0.46563  0.51175  0.29588  1.0000
  C   C11       1.0  0.48812  0.95399  0.28288  1.0000
  C   C12       1.0  0.04833  0.53077  0.30246  1.0000
  C   C13       1.0  0.44953  0.47072  0.35672  1.0000
  C   C14       1.0  0.52866  0.97899  0.34624  1.0000
  C   C15       1.0  0.02306  0.54611  0.37084  1.0000
  C   C16       1.0  0.47263  0.44993  0.34601  1.0000
  C   C17       1.0  0.54878  0.02304  0.34380  1.0000
  C   C18       1.0  0.97934  0.52229  0.36383  1.0000
  C   C19       1.0  0.56349  0.56863  0.08308  1.0000
  C   C20       1.0  0.43252  0.99530  0.07119  1.0000
  C   C21       1.0  0.00810  0.43199  0.09002  1.0000
  C   C22       1.0  0.71279  0.36071  0.25576  1.0000
  C   C23       1.0  0.64451  0.35440  0.26191  1.0000
  C   C24       1.0  0.65083  0.29189  0.26141  1.0000
  C   C25       1.0  0.68766  0.37881  0.25695  1.0000
  C   C26       1.0  0.62676  0.31106  0.26263  1.0000
  C   C27       1.0  0.69390  0.31722  0.25652  1.0000
  C   C28       1.0  0.53877  0.45088  0.24037  1.0000
  C   C29       1.0  0.54765  0.08842  0.24429  1.0000
  C   C30       1.0  0.91496  0.45509  0.26489  1.0000
  C   C31       1.0  0.51218  0.46900  0.26670  1.0000
  C   C32       1.0  0.53005  0.04370  0.26637  1.0000
  C   C33       1.0  0.95914  0.48240  0.28445  1.0000
  C   C34       1.0  0.52738  0.50914  0.19988  1.0000
  C   C35       1.0  0.49064  0.01867  0.19516  1.0000
  C   C36       1.0  0.98432  0.46732  0.21564  1.0000
  C   C37       1.0  0.50475  0.52985  0.21933  1.0000
  C   C38       1.0  0.47029  0.97519  0.20850  1.0000
  C   C39       1.0  0.02748  0.49108  0.22723  1.0000
  C   C40       1.0  0.59107  0.04728  0.42064  1.0000
  C   C41       1.0  0.95409  0.53961  0.44152  1.0000
  C   C42       1.0  0.45379  0.40654  0.41498  1.0000
  C   C43       1.0  0.55103  0.95856  0.41871  1.0000
  C   C44       1.0  0.04244  0.58857  0.45329  1.0000
  C   C45       1.0  0.40701  0.44957  0.43602  1.0000
  C   C46       1.0  0.28737  0.63942  0.76311  1.0000
  C   C47       1.0  0.35595  0.64653  0.76496  1.0000
  C   C48       1.0  0.34903  0.70854  0.76215  1.0000
  C   C49       1.0  0.31288  0.62185  0.76502  1.0000
  C   C50       1.0  0.37354  0.68983  0.76378  1.0000
  C   C51       1.0  0.30602  0.68289  0.76254  1.0000
  C   C52       1.0  0.44325  0.53493  0.79993  1.0000
  C   C53       1.0  0.46281  0.90812  0.78957  1.0000
  C   C54       1.0  0.08948  0.55141  0.80354  1.0000
  C   C55       1.0  0.46673  0.51384  0.78774  1.0000
  C   C56       1.0  0.48485  0.95294  0.77912  1.0000
  C   C57       1.0  0.04498  0.52838  0.80078  1.0000
  C   C58       1.0  0.45251  0.47293  0.84642  1.0000
  C   C59       1.0  0.52538  0.97882  0.84065  1.0000
  C   C60       1.0  0.01981  0.54392  0.86695  1.0000
  C   C61       1.0  0.47674  0.45348  0.82732  1.0000
  C   C62       1.0  0.54575  0.02276  0.82625  1.0000
  C   C63       1.0  0.97612  0.52073  0.85625  1.0000
  C   C64       1.0  0.56394  0.57494  0.57393  1.0000
  C   C65       1.0  0.42678  0.99217  0.57076  1.0000
  C   C66       1.0  0.00451  0.42969  0.58720  1.0000
  C   C67       1.0  0.70962  0.35804  0.74684  1.0000
  C   C68       1.0  0.64236  0.35381  0.75483  1.0000
  C   C69       1.0  0.64660  0.29016  0.75548  1.0000
  C   C70       1.0  0.68546  0.37714  0.74761  1.0000
  C   C71       1.0  0.62339  0.31033  0.75848  1.0000
  C   C72       1.0  0.68972  0.31452  0.74727  1.0000
  C   C73       1.0  0.54428  0.45814  0.72640  1.0000
  C   C74       1.0  0.54374  0.08728  0.72969  1.0000
  C   C75       1.0  0.91177  0.45456  0.74747  1.0000
  C   C76       1.0  0.51646  0.47461  0.75052  1.0000
  C   C77       1.0  0.52605  0.04258  0.75095  1.0000
  C   C78       1.0  0.95587  0.48108  0.77577  1.0000
  C   C79       1.0  0.53013  0.51484  0.68763  1.0000
  C   C80       1.0  0.48611  0.01683  0.68565  1.0000
  C   C81       1.0  0.98100  0.46571  0.70906  1.0000
  C   C82       1.0  0.50572  0.53354  0.70857  1.0000
  C   C83       1.0  0.46643  0.97341  0.70236  1.0000
  C   C84       1.0  0.02410  0.48874  0.72522  1.0000
  C   C85       1.0  0.58920  0.04743  0.89012  1.0000
  C   C86       1.0  0.95236  0.54006  0.93071  1.0000
  C   C87       1.0  0.45863  0.40942  0.88703  1.0000
  C   C88       1.0  0.54822  0.96033  0.92517  1.0000
  C   C89       1.0  0.03870  0.58595  0.95194  1.0000
  C   C90       1.0  0.41095  0.44877  0.93179  1.0000
  N   N1        1.0  0.45992  0.57303  0.26594  1.0000
  N   N2        1.0  0.42702  0.88740  0.24475  1.0000
  N   N3        1.0  0.11532  0.53798  0.25101  1.0000
  N   N4        1.0  0.52843  0.56789  0.14506  1.0000
  N   N5        1.0  0.43308  0.96078  0.12988  1.0000
  N   N6        1.0  0.04213  0.46785  0.14737  1.0000
  N   N7        1.0  0.56417  0.53422  0.11475  1.0000
  N   N8        1.0  0.46624  0.03051  0.10897  1.0000
  N   N9        1.0  0.97295  0.43040  0.12924  1.0000
  N   N10       1.0  0.53949  0.42419  0.34059  1.0000
  N   N11       1.0  0.57683  0.11632  0.33650  1.0000
  N   N12       1.0  0.88740  0.46431  0.31535  1.0000
  N   N13       1.0  0.45872  0.57363  0.75729  1.0000
  N   N14       1.0  0.42401  0.88557  0.75109  1.0000
  N   N15       1.0  0.11195  0.53494  0.76111  1.0000
  N   N16       1.0  0.52786  0.57196  0.63536  1.0000
  N   N17       1.0  0.42853  0.95822  0.62852  1.0000
  N   N18       1.0  0.03856  0.46512  0.64738  1.0000
  N   N19       1.0  0.56663  0.54153  0.60397  1.0000
  N   N20       1.0  0.46052  0.02780  0.60370  1.0000
  N   N21       1.0  0.96951  0.42877  0.62253  1.0000
  N   N22       1.0  0.54328  0.43008  0.82367  1.0000
  N   N23       1.0  0.57180  0.11451  0.82773  1.0000
  N   N24       1.0  0.88350  0.45901  0.82455  1.0000
  C  Sn1       1.0  0.36917  0.57790  0.22380  1.0000
  C   C91       1.0  0.37818  0.61625  0.29338  1.0000
  C  Sn2       1.0  0.41833  0.64495  0.34194  1.0000
  C  Sn3       1.0  0.45014  0.63514  0.32041  1.0000
  C   C92       1.0  0.44112  0.59681  0.25084  1.0000
  C  Sn4       1.0  0.40098  0.56808  0.20227  1.0000
  O  Te1       1.0  0.32881  0.54968  0.17615  1.0000
  O  Te2       1.0  0.42658  0.68309  0.41126  1.0000
  O  Te3       1.0  0.49051  0.66340  0.36814  1.0000
  O  Te4       1.0  0.39272  0.52997  0.13296  1.0000
  Mg  Mg1       1.0  0.48641  0.71126  0.45663  1.0000
  Mg  Mg2       1.0  0.33291  0.50178  0.08747  1.0000
  C  Sn5       1.0  0.34782  0.78449  0.28461  1.0000
  C   C93       1.0  0.36408  0.75979  0.22840  1.0000
  C  Sn6       1.0  0.40588  0.77779  0.18724  1.0000
  C  Sn7       1.0  0.43199  0.82139  0.20269  1.0000
  C   C94       1.0  0.41573  0.84606  0.25890  1.0000
  C  Sn8       1.0  0.37393  0.82809  0.30006  1.0000
  O  Te5       1.0  0.30594  0.76583  0.32506  1.0000
  O  Te6       1.0  0.42142  0.75246  0.13126  1.0000
  O  Te7       1.0  0.47390  0.84004  0.16217  1.0000
  O  Te8       1.0  0.35839  0.85339  0.35603  1.0000
  Mg  Mg3       1.0  0.48057  0.79244  0.09155  1.0000
  Mg  Mg4       1.0  0.29926  0.81345  0.39586  1.0000
  C  Sn9       1.0  0.19075  0.55901  0.37847  1.0000
  C   C95       1.0  0.16235  0.56611  0.29495  1.0000
  C  Sn10      1.0  0.17574  0.59748  0.17536  1.0000
  C  Sn11      1.0  0.21839  0.62226  0.13839  1.0000
  C   C96       1.0  0.24676  0.61515  0.22186  1.0000
  C  Sn12      1.0  0.23340  0.58379  0.34150  1.0000
  O  Te9       1.0  0.17667  0.52748  0.49756  1.0000
  O  Te10      1.0  0.14677  0.60399  0.09355  1.0000
  O  Te11      1.0  0.23245  0.65381  0.01920  1.0000
  O  Te12      1.0  0.26235  0.57727  0.42326  1.0000
  Mg  Mg5       1.0  0.17880  0.65299  0.94122  1.0000
  Mg  Mg6       1.0  0.22806  0.53057  0.57554  1.0000
  C  Sn13      1.0  0.56703  0.34832  0.32973  1.0000
  C   C97       1.0  0.60561  0.36495  0.25108  1.0000
  C  Sn14      1.0  0.62800  0.40711  0.21185  1.0000
  C  Sn15      1.0  0.61150  0.43321  0.25217  1.0000
  C   C98       1.0  0.57295  0.41659  0.33080  1.0000
  C  Sn16      1.0  0.55053  0.37442  0.37005  1.0000
  O  Te13      1.0  0.54518  0.30608  0.36780  1.0000
  O  Te14      1.0  0.66650  0.42301  0.13316  1.0000
  O  Te15      1.0  0.63339  0.47548  0.21403  1.0000
  O  Te16      1.0  0.51206  0.35852  0.44872  1.0000
  Mg  Mg7       1.0  0.68452  0.48257  0.10680  1.0000
  Mg  Mg8       1.0  0.49402  0.29898  0.47522  1.0000
  C  Sn17      1.0  0.63251  0.19553  0.42480  1.0000
  C   C99       1.0  0.59456  0.16510  0.36134  1.0000
  C  Sn18      1.0  0.57501  0.17489  0.23684  1.0000
  C  Sn19      1.0  0.59379  0.21595  0.17438  1.0000
  C   C100      1.0  0.63172  0.24635  0.23780  1.0000
  C  Sn20      1.0  0.65130  0.23659  0.36233  1.0000
  O  Te17      1.0  0.65151  0.18505  0.54923  1.0000
  O  Te18      1.0  0.53707  0.14394  0.17540  1.0000
  O  Te19      1.0  0.57476  0.22641  0.04985  1.0000
  O  Te20      1.0  0.68921  0.26751  0.42374  1.0000
  Mg  Mg9       1.0  0.52332  0.17346  0.00607  1.0000
  Mg  Mg10      1.0  0.70300  0.23802  0.59300  1.0000
  C  Sn21      1.0  0.79376  0.37205  0.21985  1.0000
  C   C101      1.0  0.76361  0.37947  0.29025  1.0000
  C  Sn22      1.0  0.77424  0.41875  0.35418  1.0000
  C  Sn23      1.0  0.81585  0.45129  0.34752  1.0000
  C   C102      1.0  0.84597  0.44386  0.27713  1.0000
  C  Sn24      1.0  0.83538  0.40459  0.21319  1.0000
  O  Te21      1.0  0.78244  0.33254  0.15669  1.0000
  O  Te22      1.0  0.74356  0.42542  0.42401  1.0000
  O  Te23      1.0  0.82716  0.49082  0.41077  1.0000
  O  Te24      1.0  0.86603  0.39792  0.14338  1.0000
  Mg  Mg11      1.0  0.77428  0.48459  0.49350  1.0000
  Mg  Mg12      1.0  0.83534  0.33877  0.07377  1.0000
  C  Sn25      1.0  0.36671  0.57646  0.72590  1.0000
  C   C103      1.0  0.37596  0.61527  0.79107  1.0000
  C  Sn26      1.0  0.41647  0.64475  0.83174  1.0000
  C  Sn27      1.0  0.44842  0.63526  0.80666  1.0000
  C   C104      1.0  0.43917  0.59648  0.74151  1.0000
  C  Sn28      1.0  0.39866  0.56697  0.70082  1.0000
  O  Te25      1.0  0.32600  0.54746  0.68611  1.0000
  O  Te26      1.0  0.42495  0.68333  0.89677  1.0000
  O  Te27      1.0  0.48916  0.66430  0.84652  1.0000
  O  Te28      1.0  0.39018  0.52841  0.63580  1.0000
  Mg  Mg13      1.0  0.48525  0.71253  0.93161  1.0000
  Mg  Mg14      1.0  0.32989  0.49920  0.60083  1.0000
  C  Sn29      1.0  0.36812  0.80974  0.88242  1.0000
  C   C105      1.0  0.40414  0.83800  0.79787  1.0000
  C  Sn30      1.0  0.42164  0.82418  0.67487  1.0000
  C  Sn31      1.0  0.40274  0.78122  0.63547  1.0000
  C   C106      1.0  0.36674  0.75298  0.71997  1.0000
  C  Sn32      1.0  0.34921  0.76678  0.84302  1.0000
  O  Te29      1.0  0.35344  0.82195  0.00493  1.0000
  O  Te30      1.0  0.45768  0.85302  0.59209  1.0000
  O  Te31      1.0  0.41974  0.76672  0.51285  1.0000
  O  Te32      1.0  0.31320  0.73796  0.92576  1.0000
  Mg  Mg15      1.0  0.46905  0.81807  0.43480  1.0000
  Mg  Mg16      1.0  0.30408  0.77058  0.08300  1.0000
  C  Sn33      1.0  0.18356  0.60254  0.63425  1.0000
  C   C107      1.0  0.15944  0.56408  0.71110  1.0000
  C  Sn34      1.0  0.17648  0.55016  0.83103  1.0000
  C  Sn35      1.0  0.21850  0.57522  0.87516  1.0000
  C   C108      1.0  0.24260  0.61365  0.79836  1.0000
  C  Sn36      1.0  0.22559  0.62759  0.67838  1.0000
  O  Te33      1.0  0.16588  0.61583  0.51469  1.0000
  O  Te34      1.0  0.15175  0.51160  0.90610  1.0000
  O  Te35      1.0  0.23617  0.56189  0.99482  1.0000
  O  Te36      1.0  0.25029  0.66613  0.60336  1.0000
  Mg  Mg17      1.0  0.19222  0.50475  0.06203  1.0000
  Mg  Mg18      1.0  0.21214  0.67072  0.44749  1.0000
  C  Sn37      1.0  0.63418  0.42587  0.73148  1.0000
  C   C109      1.0  0.62536  0.38750  0.79572  1.0000
  C  Sn38      1.0  0.58586  0.35965  0.85574  1.0000
  C  Sn39      1.0  0.55451  0.37037  0.85138  1.0000
  C   C110      1.0  0.56333  0.40872  0.78715  1.0000
  C  Sn40      1.0  0.60283  0.43659  0.72712  1.0000
  O  Te37      1.0  0.67388  0.45323  0.67214  1.0000
  O  Te38      1.0  0.57779  0.32148  0.91943  1.0000
  O  Te39      1.0  0.51478  0.34297  0.91080  1.0000
  O  Te40      1.0  0.61090  0.47474  0.66344  1.0000
  Mg  Mg19      1.0  0.51890  0.29468  0.98552  1.0000
  Mg  Mg20      1.0  0.66977  0.50155  0.59724  1.0000
  C  Sn41      1.0  0.64956  0.21675  0.82022  1.0000
  C   C111      1.0  0.63431  0.23983  0.74362  1.0000
  C  Sn42      1.0  0.59244  0.22159  0.70699  1.0000
  C  Sn43      1.0  0.56523  0.17941  0.74788  1.0000
  C   C112      1.0  0.58048  0.15636  0.82445  1.0000
  C  Sn44      1.0  0.62235  0.17457  0.86110  1.0000
  O  Te41      1.0  0.69153  0.23562  0.85569  1.0000
  O  Te42      1.0  0.57792  0.24528  0.63033  1.0000
  O  Te43      1.0  0.52323  0.16055  0.71233  1.0000
  O  Te44      1.0  0.63686  0.15090  0.93774  1.0000
  Mg  Mg21      1.0  0.51821  0.20567  0.60717  1.0000
  Mg  Mg22      1.0  0.69657  0.19048  0.96103  1.0000
  C  Sn45      1.0  0.78213  0.43479  0.81117  1.0000
  C   C113      1.0  0.75936  0.39600  0.73292  1.0000
  C  Sn46      1.0  0.77769  0.37215  0.69332  1.0000
  C  Sn47      1.0  0.81964  0.38739  0.73286  1.0000
  C   C114      1.0  0.84238  0.42615  0.81109  1.0000
  C  Sn48      1.0  0.82408  0.45002  0.85070  1.0000
  O  Te45      1.0  0.76317  0.45810  0.84961  1.0000
  O  Te46      1.0  0.75430  0.33347  0.61505  1.0000
  O  Te47      1.0  0.83859  0.36404  0.69434  1.0000
  O  Te48      1.0  0.84744  0.48868  0.92895  1.0000
  Mg  Mg23      1.0  0.79392  0.31324  0.58792  1.0000
  Mg  Mg24      1.0  0.80785  0.50892  0.95622  1.0000
