data_image0
_chemical_formula_structural       H72C90N24C2Sn2C2HTe2HMgC2Sn2C2HTe2HMgC2Sn2C2HTe2HMgC2Sn2C2HTe2HMgC2Sn2C2HTe2HMgC2Sn2C2HTe2HMgC2Sn2C2HTe2HMgC2Sn2C2HTe2HMgC2Sn2C2HTe2HMgC2Sn2C2HTe2HMgC2Sn2C2HTe2HMgC2Sn2C2HTe2HMg
_chemical_formula_sum              "H96 C138 N24 Sn24 Te24 Mg12"
_cell_length_a       37.4845
_cell_length_b       37.1936
_cell_length_c       7.94895
_cell_angle_alpha    90.9267
_cell_angle_beta     89.0722
_cell_angle_gamma    120.02

_symmetry_space_group_name_H-M    'P1'
_space_group_IT_number       1

loop_
  _space_group_symop_operation_xyz
  'x, y, z'

loop_
  _atom_site_type_symbol
  _atom_site_label
  _atom_site_symmetry_multiplicity
  _atom_site_fract_x
  _atom_site_fract_y
  _atom_site_fract_z
  _atom_site_occupancy
  H   H1        1.0  0.30162  0.59026  0.26705  1.0000
  H   H2        1.0  0.41035  0.71084  0.26754  1.0000
  H   H3        1.0  0.29060  0.69968  0.26046  1.0000
  H   H4        1.0  0.41123  0.51710  0.35127  1.0000
  H   H5        1.0  0.48097  0.89339  0.33963  1.0000
  H   H6        1.0  0.10826  0.58547  0.35453  1.0000
  H   H7        1.0  0.51906  0.58930  0.14079  1.0000
  H   H8        1.0  0.41231  0.92978  0.11992  1.0000
  H   H9        1.0  0.07296  0.47854  0.13420  1.0000
  H   H10       1.0  0.58690  0.60218  0.50772  1.0000
  H   H11       1.0  0.40023  0.98884  0.50449  1.0000
  H   H12       1.0  0.00731  0.40598  0.51705  1.0000
  H   H13       1.0  0.70203  0.41247  0.25814  1.0000
  H   H14       1.0  0.59343  0.29176  0.26854  1.0000
  H   H15       1.0  0.71315  0.30301  0.25759  1.0000
  H   H16       1.0  0.55859  0.46235  0.12788  1.0000
  H   H17       1.0  0.53349  0.09629  0.14199  1.0000
  H   H18       1.0  0.90709  0.42553  0.20243  1.0000
  H   H19       1.0  0.59840  0.07899  0.45118  1.0000
  H   H20       1.0  0.92860  0.51605  0.51668  1.0000
  H   H21       1.0  0.47537  0.39496  0.40425  1.0000
  H   H22       1.0  0.61510  0.04909  0.33366  1.0000
  H   H23       1.0  0.93928  0.54822  0.34409  1.0000
  H   H24       1.0  0.42521  0.38512  0.34904  1.0000
  H   H25       1.0  0.58941  0.04938  0.02849  1.0000
  H   H26       1.0  0.95691  0.54396  0.06762  1.0000
  H   H27       1.0  0.46227  0.40861  0.02379  1.0000
  H   H28       1.0  0.58410  0.97641  0.39012  1.0000
  H   H29       1.0  0.03225  0.60824  0.39304  1.0000
  H   H30       1.0  0.38440  0.45124  0.35526  1.0000
  H   H31       1.0  0.53959  0.92706  0.36931  1.0000
  H   H32       1.0  0.07609  0.60519  0.44803  1.0000
  H   H33       1.0  0.40712  0.46428  0.55716  1.0000
  H   H34       1.0  0.56194  0.97705  0.04295  1.0000
  H   H35       1.0  0.02540  0.58327  0.07839  1.0000
  H   H36       1.0  0.41383  0.43592  0.05096  1.0000
  H   H37       1.0  0.29896  0.58826  0.76638  1.0000
  H   H38       1.0  0.40689  0.70937  0.76394  1.0000
  H   H39       1.0  0.28671  0.69703  0.76218  1.0000
  H   H40       1.0  0.41140  0.51752  0.84661  1.0000
  H   H41       1.0  0.47966  0.89292  0.83212  1.0000
  H   H42       1.0  0.10460  0.58410  0.84280  1.0000
  H   H43       1.0  0.51665  0.59192  0.63119  1.0000
  H   H44       1.0  0.40776  0.92716  0.62303  1.0000
  H   H45       1.0  0.06923  0.47471  0.63996  1.0000
  H   H46       1.0  0.58721  0.59506  0.01520  1.0000
  H   H47       1.0  0.40694  0.99263  0.99956  1.0000
  H   H48       1.0  0.01101  0.40847  0.01888  1.0000
  H   H49       1.0  0.70045  0.41085  0.74771  1.0000
  H   H50       1.0  0.59000  0.29188  0.76757  1.0000
  H   H51       1.0  0.70818  0.29941  0.74645  1.0000
  H   H52       1.0  0.56625  0.47190  0.62163  1.0000
  H   H53       1.0  0.53103  0.09582  0.62415  1.0000
  H   H54       1.0  0.90464  0.42986  0.65395  1.0000
  H   H55       1.0  0.60426  0.07931  0.84497  1.0000
  H   H56       1.0  0.91938  0.52043  0.90892  1.0000
  H   H57       1.0  0.47444  0.39436  0.82905  1.0000
  H   H58       1.0  0.60732  0.03283  0.85229  1.0000
  H   H59       1.0  0.96317  0.57108  0.87891  1.0000
  H   H60       1.0  0.42558  0.39114  0.86028  1.0000
  H   H61       1.0  0.59285  0.03254  0.53584  1.0000
  H   H62       1.0  0.97250  0.56674  0.52112  1.0000
  H   H63       1.0  0.44610  0.40623  0.54896  1.0000
  H   H64       1.0  0.57363  0.96290  0.84507  1.0000
  H   H65       1.0  0.03237  0.60736  0.88157  1.0000
  H   H66       1.0  0.38934  0.42246  0.85275  1.0000
  H   H67       1.0  0.52845  0.92761  0.95686  1.0000
  H   H68       1.0  0.07206  0.60073  0.96624  1.0000
  H   H69       1.0  0.39675  0.46766  0.96090  1.0000
  H   H70       1.0  0.54760  0.95657  0.55646  1.0000
  H   H71       1.0  0.03342  0.58593  0.58669  1.0000
  H   H72       1.0  0.39578  0.41678  0.46025  1.0000
  C   C1        1.0  0.29070  0.64187  0.26371  1.0000
  C   C2        1.0  0.35898  0.64822  0.26818  1.0000
  C   C3        1.0  0.35273  0.71066  0.26302  1.0000
  C   C4        1.0  0.31586  0.62390  0.26661  1.0000
  C   C5        1.0  0.37695  0.69160  0.26672  1.0000
  C   C6        1.0  0.30970  0.68532  0.26251  1.0000
  C   C7        1.0  0.44326  0.53403  0.30628  1.0000
  C   C8        1.0  0.46540  0.90927  0.29058  1.0000
  C   C9        1.0  0.09288  0.55369  0.30415  1.0000
  C   C10       1.0  0.46563  0.51175  0.29588  1.0000
  C   C11       1.0  0.48812  0.95399  0.28288  1.0000
  C   C12       1.0  0.04833  0.53077  0.30246  1.0000
  C   C13       1.0  0.44953  0.47072  0.35672  1.0000
  C   C14       1.0  0.52866  0.97899  0.34624  1.0000
  C   C15       1.0  0.02306  0.54611  0.37084  1.0000
  C   C16       1.0  0.47263  0.44993  0.34601  1.0000
  C   C17       1.0  0.54878  0.02304  0.34380  1.0000
  C   C18       1.0  0.97934  0.52229  0.36383  1.0000
  C   C19       1.0  0.56349  0.56863  0.08308  1.0000
  C   C20       1.0  0.43252  0.99530  0.07119  1.0000
  C   C21       1.0  0.00810  0.43199  0.09002  1.0000
  C   C22       1.0  0.71279  0.36071  0.25576  1.0000
  C   C23       1.0  0.64451  0.35440  0.26191  1.0000
  C   C24       1.0  0.65083  0.29189  0.26141  1.0000
  C   C25       1.0  0.68766  0.37881  0.25695  1.0000
  C   C26       1.0  0.62676  0.31106  0.26263  1.0000
  C   C27       1.0  0.69390  0.31722  0.25652  1.0000
  C   C28       1.0  0.53877  0.45088  0.24037  1.0000
  C   C29       1.0  0.54765  0.08842  0.24429  1.0000
  C   C30       1.0  0.91496  0.45509  0.26489  1.0000
  C   C31       1.0  0.51218  0.46900  0.26670  1.0000
  C   C32       1.0  0.53005  0.04370  0.26637  1.0000
  C   C33       1.0  0.95914  0.48240  0.28445  1.0000
  C   C34       1.0  0.52738  0.50914  0.19988  1.0000
  C   C35       1.0  0.49064  0.01867  0.19516  1.0000
  C   C36       1.0  0.98432  0.46732  0.21564  1.0000
  C   C37       1.0  0.50475  0.52985  0.21933  1.0000
  C   C38       1.0  0.47029  0.97519  0.20850  1.0000
  C   C39       1.0  0.02748  0.49108  0.22723  1.0000
  C   C40       1.0  0.59107  0.04728  0.42064  1.0000
  C   C41       1.0  0.95409  0.53961  0.44152  1.0000
  C   C42       1.0  0.45379  0.40654  0.41498  1.0000
  C   C43       1.0  0.55103  0.95856  0.41871  1.0000
  C   C44       1.0  0.04244  0.58857  0.45329  1.0000
  C   C45       1.0  0.40701  0.44957  0.43602  1.0000
  C   C46       1.0  0.28737  0.63942  0.76311  1.0000
  C   C47       1.0  0.35595  0.64653  0.76496  1.0000
  C   C48       1.0  0.34903  0.70854  0.76215  1.0000
  C   C49       1.0  0.31288  0.62185  0.76502  1.0000
  C   C50       1.0  0.37354  0.68983  0.76378  1.0000
  C   C51       1.0  0.30602  0.68289  0.76254  1.0000
  C   C52       1.0  0.44325  0.53493  0.79993  1.0000
  C   C53       1.0  0.46281  0.90812  0.78957  1.0000
  C   C54       1.0  0.08948  0.55141  0.80354  1.0000
  C   C55       1.0  0.46673  0.51384  0.78774  1.0000
  C   C56       1.0  0.48485  0.95294  0.77912  1.0000
  C   C57       1.0  0.04498  0.52838  0.80078  1.0000
  C   C58       1.0  0.45251  0.47293  0.84642  1.0000
  C   C59       1.0  0.52538  0.97882  0.84065  1.0000
  C   C60       1.0  0.01981  0.54392  0.86695  1.0000
  C   C61       1.0  0.47674  0.45348  0.82732  1.0000
  C   C62       1.0  0.54575  0.02276  0.82625  1.0000
  C   C63       1.0  0.97612  0.52073  0.85625  1.0000
  C   C64       1.0  0.56394  0.57494  0.57393  1.0000
  C   C65       1.0  0.42678  0.99217  0.57076  1.0000
  C   C66       1.0  0.00451  0.42969  0.58720  1.0000
  C   C67       1.0  0.70962  0.35804  0.74684  1.0000
  C   C68       1.0  0.64236  0.35381  0.75483  1.0000
  C   C69       1.0  0.64660  0.29016  0.75548  1.0000
  C   C70       1.0  0.68546  0.37714  0.74761  1.0000
  C   C71       1.0  0.62339  0.31033  0.75848  1.0000
  C   C72       1.0  0.68972  0.31452  0.74727  1.0000
  C   C73       1.0  0.54428  0.45814  0.72640  1.0000
  C   C74       1.0  0.54374  0.08728  0.72969  1.0000
  C   C75       1.0  0.91177  0.45456  0.74747  1.0000
  C   C76       1.0  0.51646  0.47461  0.75052  1.0000
  C   C77       1.0  0.52605  0.04258  0.75095  1.0000
  C   C78       1.0  0.95587  0.48108  0.77577  1.0000
  C   C79       1.0  0.53013  0.51484  0.68763  1.0000
  C   C80       1.0  0.48611  0.01683  0.68565  1.0000
  C   C81       1.0  0.98100  0.46571  0.70906  1.0000
  C   C82       1.0  0.50572  0.53354  0.70857  1.0000
  C   C83       1.0  0.46643  0.97341  0.70236  1.0000
  C   C84       1.0  0.02410  0.48874  0.72522  1.0000
  C   C85       1.0  0.58920  0.04743  0.89012  1.0000
  C   C86       1.0  0.95236  0.54006  0.93071  1.0000
  C   C87       1.0  0.45863  0.40942  0.88703  1.0000
  C   C88       1.0  0.54822  0.96033  0.92517  1.0000
  C   C89       1.0  0.03870  0.58595  0.95194  1.0000
  C   C90       1.0  0.41095  0.44877  0.93179  1.0000
  N   N1        1.0  0.45992  0.57303  0.26594  1.0000
  N   N2        1.0  0.42702  0.88740  0.24475  1.0000
  N   N3        1.0  0.11532  0.53798  0.25101  1.0000
  N   N4        1.0  0.52843  0.56789  0.14506  1.0000
  N   N5        1.0  0.43308  0.96078  0.12988  1.0000
  N   N6        1.0  0.04213  0.46785  0.14737  1.0000
  N   N7        1.0  0.56417  0.53422  0.11475  1.0000
  N   N8        1.0  0.46624  0.03051  0.10897  1.0000
  N   N9        1.0  0.97295  0.43040  0.12924  1.0000
  N   N10       1.0  0.53949  0.42419  0.34059  1.0000
  N   N11       1.0  0.57683  0.11632  0.33650  1.0000
  N   N12       1.0  0.88740  0.46431  0.31535  1.0000
  N   N13       1.0  0.45872  0.57363  0.75729  1.0000
  N   N14       1.0  0.42401  0.88557  0.75109  1.0000
  N   N15       1.0  0.11195  0.53494  0.76111  1.0000
  N   N16       1.0  0.52786  0.57196  0.63536  1.0000
  N   N17       1.0  0.42853  0.95822  0.62852  1.0000
  N   N18       1.0  0.03856  0.46512  0.64738  1.0000
  N   N19       1.0  0.56663  0.54153  0.60397  1.0000
  N   N20       1.0  0.46052  0.02780  0.60370  1.0000
  N   N21       1.0  0.96951  0.42877  0.62253  1.0000
  N   N22       1.0  0.54328  0.43008  0.82367  1.0000
  N   N23       1.0  0.57180  0.11451  0.82773  1.0000
  N   N24       1.0  0.88350  0.45901  0.82455  1.0000
  C   C91       1.0  0.43260  0.64743  0.36451  1.0000
  C   C92       1.0  0.39517  0.63470  0.28442  1.0000
  C  Sn1       1.0  0.37613  0.59749  0.19275  1.0000
  C  Sn2       1.0  0.39499  0.57262  0.18131  1.0000
  C   C93       1.0  0.43243  0.58561  0.26199  1.0000
  C   C94       1.0  0.45122  0.62291  0.35335  1.0000
  H   H73       1.0  0.44713  0.67628  0.43528  1.0000
  O  Te1       1.0  0.33874  0.58524  0.11345  1.0000
  O  Te2       1.0  0.37663  0.53527  0.09055  1.0000
  H   H74       1.0  0.48019  0.63275  0.41544  1.0000
  Mg  Mg1       1.0  0.32572  0.53182  0.00445  1.0000
  C   C95       1.0  0.41926  0.79089  0.16397  1.0000
  C   C96       1.0  0.38257  0.76195  0.24249  1.0000
  C  Sn3       1.0  0.35726  0.77483  0.32177  1.0000
  C  Sn4       1.0  0.36898  0.81749  0.32219  1.0000
  C   C97       1.0  0.40574  0.84620  0.24318  1.0000
  C   C98       1.0  0.43084  0.83298  0.16427  1.0000
  H   H75       1.0  0.43868  0.78066  0.10284  1.0000
  O  Te3       1.0  0.32070  0.74550  0.39968  1.0000
  O  Te4       1.0  0.34426  0.83121  0.40043  1.0000
  H   H76       1.0  0.45924  0.85539  0.10339  1.0000
  Mg  Mg2       1.0  0.29735  0.77941  0.48963  1.0000
  C   C99       1.0  0.21599  0.56639  0.34879  1.0000
  C   C100      1.0  0.24116  0.60482  0.27335  1.0000
  C  Sn5       1.0  0.22371  0.62416  0.18402  1.0000
  C  Sn6       1.0  0.18024  0.60459  0.17021  1.0000
  C   C101      1.0  0.15533  0.56616  0.24624  1.0000
  C   C102      1.0  0.17311  0.54707  0.33528  1.0000
  H   H77       1.0  0.22975  0.55163  0.41776  1.0000
  O  Te5       1.0  0.24931  0.66255  0.10937  1.0000
  O  Te6       1.0  0.16199  0.62324  0.08172  1.0000
  H   H78       1.0  0.15362  0.51733  0.39377  1.0000
  Mg  Mg3       1.0  0.20986  0.67559  0.00196  1.0000
  C   C103      1.0  0.57091  0.35233  0.38354  1.0000
  C   C104      1.0  0.60744  0.36629  0.29106  1.0000
  C  Sn7       1.0  0.62543  0.40461  0.21030  1.0000
  C  Sn8       1.0  0.60643  0.42935  0.22262  1.0000
  C   C105      1.0  0.56991  0.41511  0.31553  1.0000
  C   C106      1.0  0.55216  0.37671  0.39580  1.0000
  H   H79       1.0  0.55719  0.32263  0.44573  1.0000
  O  Te7       1.0  0.66192  0.41809  0.11838  1.0000
  O  Te8       1.0  0.62376  0.46777  0.14320  1.0000
  H   H80       1.0  0.52390  0.36592  0.46748  1.0000
  Mg  Mg4       1.0  0.67369  0.47269  0.03250  1.0000
  C   C107      1.0  0.65051  0.21904  0.37996  1.0000
  C   C108      1.0  0.63765  0.24247  0.29017  1.0000
  C  Sn9       1.0  0.59923  0.22311  0.21236  1.0000
  C  Sn10      1.0  0.57327  0.17947  0.22492  1.0000
  C   C109      1.0  0.58640  0.15630  0.31513  1.0000
  C   C110      1.0  0.62491  0.17600  0.39246  1.0000
  H   H81       1.0  0.68030  0.23428  0.43988  1.0000
  O  Te9       1.0  0.58687  0.24698  0.12309  1.0000
  O  Te10      1.0  0.53471  0.15932  0.14842  1.0000
  H   H82       1.0  0.63485  0.15785  0.46206  1.0000
  Mg  Mg5       1.0  0.53159  0.20528  0.04066  1.0000
  C   C111      1.0  0.81821  0.38962  0.18193  1.0000
  C   C112      1.0  0.84177  0.42814  0.26129  1.0000
  C  Sn11      1.0  0.82257  0.44595  0.35466  1.0000
  C  Sn12      1.0  0.77896  0.42473  0.36866  1.0000
  C   C113      1.0  0.75567  0.38620  0.28890  1.0000
  C   C114      1.0  0.77520  0.36867  0.19573  1.0000
  H   H83       1.0  0.83331  0.37604  0.10992  1.0000
  O  Te11      1.0  0.84658  0.48446  0.43309  1.0000
  O  Te12      1.0  0.75898  0.44182  0.46126  1.0000
  H   H84       1.0  0.75694  0.33883  0.13440  1.0000
  Mg  Mg6       1.0  0.80508  0.49503  0.54521  1.0000
  C   C115      1.0  0.38301  0.56887  0.67802  1.0000
  C   C116      1.0  0.42315  0.58476  0.73642  1.0000
  C  Sn13      1.0  0.44301  0.62305  0.82032  1.0000
  C  Sn14      1.0  0.42221  0.64578  0.84609  1.0000
  C   C117      1.0  0.38204  0.62960  0.78729  1.0000
  C   C118      1.0  0.36247  0.59125  0.70345  1.0000
  H   H85       1.0  0.36785  0.53919  0.61323  1.0000
  O  Te13      1.0  0.48313  0.63849  0.87778  1.0000
  O  Te14      1.0  0.44133  0.68412  0.92961  1.0000
  H   H86       1.0  0.33137  0.57894  0.65835  1.0000
  Mg  Mg7       1.0  0.49620  0.69215  0.98450  1.0000
  C   C119      1.0  0.42584  0.81233  0.66365  1.0000
  C   C120      1.0  0.41131  0.83788  0.72779  1.0000
  C  Sn15      1.0  0.37427  0.82080  0.81861  1.0000
  C  Sn16      1.0  0.35144  0.77733  0.84554  1.0000
  C   C121      1.0  0.36625  0.75204  0.78095  1.0000
  C   C122      1.0  0.40335  0.76945  0.69021  1.0000
  H   H87       1.0  0.45455  0.82580  0.59352  1.0000
  O  Te15      1.0  0.36019  0.84677  0.88176  1.0000
  O  Te16      1.0  0.31433  0.75944  0.93591  1.0000
  H   H88       1.0  0.41460  0.74967  0.64066  1.0000
  Mg  Mg8       1.0  0.30790  0.80774  0.99683  1.0000
  C   C123      1.0  0.18344  0.61108  0.67513  1.0000
  C   C124      1.0  0.15888  0.57080  0.73578  1.0000
  C  Sn17      1.0  0.17675  0.55111  0.81974  1.0000
  C  Sn18      1.0  0.22002  0.57221  0.84326  1.0000
  C   C125      1.0  0.24432  0.61251  0.78222  1.0000
  C   C126      1.0  0.22612  0.63192  0.69833  1.0000
  H   H89       1.0  0.16936  0.62611  0.61031  1.0000
  O  Te17      1.0  0.15176  0.51086  0.87948  1.0000
  O  Te18      1.0  0.23869  0.55326  0.92678  1.0000
  H   H90       1.0  0.24514  0.66311  0.65149  1.0000
  Mg  Mg9       1.0  0.19160  0.49811  0.98524  1.0000
  C   C127      1.0  0.57197  0.35704  0.88272  1.0000
  C   C128      1.0  0.60740  0.36822  0.78597  1.0000
  C  Sn19      1.0  0.62599  0.40532  0.69624  1.0000
  C  Sn20      1.0  0.60871  0.43165  0.70380  1.0000
  C   C129      1.0  0.57327  0.42019  0.80104  1.0000
  C   C130      1.0  0.55492  0.38299  0.89029  1.0000
  H   H91       1.0  0.55778  0.32826  0.95185  1.0000
  O  Te19      1.0  0.66137  0.41602  0.60015  1.0000
  O  Te20      1.0  0.62667  0.46892  0.61541  1.0000
  H   H92       1.0  0.52750  0.37435  0.96527  1.0000
  Mg  Mg10      1.0  0.67460  0.46997  0.50196  1.0000
  C   C131      1.0  0.64588  0.21723  0.87432  1.0000
  C   C132      1.0  0.63318  0.24068  0.78372  1.0000
  C  Sn21      1.0  0.59484  0.22135  0.70525  1.0000
  C  Sn22      1.0  0.56879  0.17773  0.71799  1.0000
  C   C133      1.0  0.58176  0.15455  0.80902  1.0000
  C   C134      1.0  0.62020  0.17420  0.88700  1.0000
  H   H93       1.0  0.67560  0.23244  0.93474  1.0000
  O  Te21      1.0  0.58264  0.24525  0.61517  1.0000
  O  Te22      1.0  0.53031  0.15762  0.64085  1.0000
  H   H94       1.0  0.63001  0.15604  0.95723  1.0000
  Mg  Mg11      1.0  0.52742  0.20360  0.53209  1.0000
  C   C135      1.0  0.78175  0.43083  0.86497  1.0000
  C   C136      1.0  0.75857  0.39416  0.77291  1.0000
  C  Sn23      1.0  0.77790  0.37479  0.69177  1.0000
  C  Sn24      1.0  0.82124  0.39253  0.70328  1.0000
  C   C137      1.0  0.84414  0.42920  0.79579  1.0000
  C   C138      1.0  0.82449  0.44834  0.87644  1.0000
  H   H95       1.0  0.76654  0.44562  0.92746  1.0000
  O  Te23      1.0  0.75428  0.33818  0.60027  1.0000
  O  Te24      1.0  0.84134  0.37381  0.62347  1.0000
  H   H96       1.0  0.84244  0.47671  0.94780  1.0000
  Mg  Mg12      1.0  0.79580  0.32428  0.51360  1.0000
