data_image0
_chemical_formula_structural       H96C126N24SnCSn2CSnTe4Mg2SnCSn2CSnTe4Mg2SnCSn2CSnTe4Mg2SnCSn2CSnTe4Mg2SnCSn2CSnTe4Mg2SnCSn2CSnTe4Mg2
_chemical_formula_sum              "H96 C138 N24 Sn24 Te24 Mg12"
_cell_length_a       37.4845
_cell_length_b       37.1936
_cell_length_c       7.94895
_cell_angle_alpha    90.9267
_cell_angle_beta     89.0722
_cell_angle_gamma    120.02

_symmetry_space_group_name_H-M    'P1'
_space_group_IT_number       1

loop_
  _space_group_symop_operation_xyz
  'x, y, z'

loop_
  _atom_site_type_symbol
  _atom_site_label
  _atom_site_symmetry_multiplicity
  _atom_site_fract_x
  _atom_site_fract_y
  _atom_site_fract_z
  _atom_site_occupancy
  H   H1        1.0  0.30162  0.59026  0.26705  1.0000
  H   H2        1.0  0.41035  0.71084  0.26754  1.0000
  H   H3        1.0  0.29060  0.69968  0.26046  1.0000
  H   H4        1.0  0.34318  0.57570  0.11705  1.0000
  H   H5        1.0  0.42604  0.76583  0.11830  1.0000
  H   H6        1.0  0.38594  0.54223  0.11933  1.0000
  H   H7        1.0  0.45877  0.84226  0.11304  1.0000
  H   H8        1.0  0.47751  0.64429  0.40913  1.0000
  H   H9        1.0  0.35411  0.83520  0.37224  1.0000
  H   H10       1.0  0.43319  0.67614  0.41945  1.0000
  H   H11       1.0  0.32253  0.75888  0.38980  1.0000
  H   H12       1.0  0.41123  0.51710  0.35127  1.0000
  H   H13       1.0  0.48097  0.89339  0.33963  1.0000
  H   H14       1.0  0.10826  0.58547  0.35453  1.0000
  H   H15       1.0  0.51906  0.58930  0.14079  1.0000
  H   H16       1.0  0.41231  0.92978  0.11992  1.0000
  H   H17       1.0  0.07296  0.47854  0.13420  1.0000
  H   H18       1.0  0.58690  0.60218  0.50772  1.0000
  H   H19       1.0  0.40023  0.98884  0.50449  1.0000
  H   H20       1.0  0.00731  0.40598  0.51705  1.0000
  H   H21       1.0  0.70203  0.41247  0.25814  1.0000
  H   H22       1.0  0.59343  0.29176  0.26854  1.0000
  H   H23       1.0  0.71315  0.30301  0.25759  1.0000
  H   H24       1.0  0.55859  0.46235  0.12788  1.0000
  H   H25       1.0  0.53349  0.09629  0.14199  1.0000
  H   H26       1.0  0.90709  0.42553  0.20243  1.0000
  H   H27       1.0  0.59840  0.07899  0.45118  1.0000
  H   H28       1.0  0.92860  0.51605  0.51668  1.0000
  H   H29       1.0  0.47537  0.39496  0.40425  1.0000
  H   H30       1.0  0.61510  0.04909  0.33366  1.0000
  H   H31       1.0  0.93928  0.54822  0.34409  1.0000
  H   H32       1.0  0.42521  0.38512  0.34904  1.0000
  H   H33       1.0  0.58941  0.04938  0.02849  1.0000
  H   H34       1.0  0.95691  0.54396  0.06762  1.0000
  H   H35       1.0  0.46227  0.40861  0.02379  1.0000
  H   H36       1.0  0.58410  0.97641  0.39012  1.0000
  H   H37       1.0  0.03225  0.60824  0.39304  1.0000
  H   H38       1.0  0.38440  0.45124  0.35526  1.0000
  H   H39       1.0  0.53959  0.92706  0.36931  1.0000
  H   H40       1.0  0.07609  0.60519  0.44803  1.0000
  H   H41       1.0  0.40712  0.46428  0.55716  1.0000
  H   H42       1.0  0.56194  0.97705  0.04295  1.0000
  H   H43       1.0  0.02540  0.58327  0.07839  1.0000
  H   H44       1.0  0.41383  0.43592  0.05096  1.0000
  H   H45       1.0  0.29896  0.58826  0.76638  1.0000
  H   H46       1.0  0.40689  0.70937  0.76394  1.0000
  H   H47       1.0  0.28671  0.69703  0.76218  1.0000
  H   H48       1.0  0.42044  0.76355  0.60565  1.0000
  H   H49       1.0  0.23117  0.65505  0.61793  1.0000
  H   H50       1.0  0.45382  0.84008  0.60420  1.0000
  H   H51       1.0  0.15540  0.61111  0.62125  1.0000
  H   H52       1.0  0.35327  0.83345  0.89540  1.0000
  H   H53       1.0  0.16524  0.51722  0.88991  1.0000
  H   H54       1.0  0.32108  0.75698  0.90673  1.0000
  H   H55       1.0  0.24089  0.56261  0.89982  1.0000
  H   H56       1.0  0.41140  0.51752  0.84661  1.0000
  H   H57       1.0  0.47966  0.89292  0.83212  1.0000
  H   H58       1.0  0.10460  0.58410  0.84280  1.0000
  H   H59       1.0  0.51665  0.59192  0.63119  1.0000
  H   H60       1.0  0.40776  0.92716  0.62303  1.0000
  H   H61       1.0  0.06923  0.47471  0.63996  1.0000
  H   H62       1.0  0.58721  0.59506  0.01520  1.0000
  H   H63       1.0  0.40694  0.99263  0.99956  1.0000
  H   H64       1.0  0.01101  0.40847  0.01888  1.0000
  H   H65       1.0  0.70045  0.41085  0.74771  1.0000
  H   H66       1.0  0.59000  0.29188  0.76757  1.0000
  H   H67       1.0  0.70818  0.29941  0.74645  1.0000
  H   H68       1.0  0.65891  0.42777  0.61830  1.0000
  H   H69       1.0  0.57115  0.23150  0.63828  1.0000
  H   H70       1.0  0.61828  0.46288  0.64747  1.0000
  H   H71       1.0  0.53709  0.15553  0.66953  1.0000
  H   H72       1.0  0.52968  0.36292  0.95458  1.0000
  H   H73       1.0  0.64140  0.16952  0.94274  1.0000
  H   H74       1.0  0.57133  0.32797  0.92945  1.0000
  H   H75       1.0  0.67573  0.24608  0.91234  1.0000
  H   H76       1.0  0.56625  0.47190  0.62163  1.0000
  H   H77       1.0  0.53103  0.09582  0.62415  1.0000
  H   H78       1.0  0.90464  0.42986  0.65395  1.0000
  H   H79       1.0  0.60426  0.07931  0.84497  1.0000
  H   H80       1.0  0.91938  0.52043  0.90892  1.0000
  H   H81       1.0  0.47444  0.39436  0.82905  1.0000
  H   H82       1.0  0.60732  0.03283  0.85229  1.0000
  H   H83       1.0  0.96317  0.57108  0.87891  1.0000
  H   H84       1.0  0.42558  0.39114  0.86028  1.0000
  H   H85       1.0  0.59285  0.03254  0.53584  1.0000
  H   H86       1.0  0.97250  0.56674  0.52112  1.0000
  H   H87       1.0  0.44610  0.40623  0.54896  1.0000
  H   H88       1.0  0.57363  0.96290  0.84507  1.0000
  H   H89       1.0  0.03237  0.60736  0.88157  1.0000
  H   H90       1.0  0.38934  0.42246  0.85275  1.0000
  H   H91       1.0  0.52845  0.92761  0.95686  1.0000
  H   H92       1.0  0.07206  0.60073  0.96624  1.0000
  H   H93       1.0  0.39675  0.46766  0.96090  1.0000
  H   H94       1.0  0.54760  0.95657  0.55646  1.0000
  H   H95       1.0  0.03342  0.58593  0.58669  1.0000
  H   H96       1.0  0.39578  0.41678  0.46025  1.0000
  C   C1        1.0  0.29070  0.64187  0.26371  1.0000
  C   C2        1.0  0.35898  0.64822  0.26818  1.0000
  C   C3        1.0  0.35273  0.71066  0.26302  1.0000
  C   C4        1.0  0.31586  0.62390  0.26661  1.0000
  C   C5        1.0  0.37695  0.69160  0.26672  1.0000
  C   C6        1.0  0.30970  0.68532  0.26251  1.0000
  C   C7        1.0  0.38472  0.62841  0.26897  1.0000
  C   C8        1.0  0.37201  0.75634  0.25713  1.0000
  C   C9        1.0  0.37182  0.59014  0.18704  1.0000
  C   C10       1.0  0.41075  0.78080  0.18040  1.0000
  C   C11       1.0  0.39589  0.57128  0.18737  1.0000
  C   C12       1.0  0.42925  0.82387  0.17653  1.0000
  C   C13       1.0  0.43443  0.59066  0.26676  1.0000
  C   C14       1.0  0.40916  0.84407  0.24639  1.0000
  C   C15       1.0  0.44806  0.62946  0.34509  1.0000
  C   C16       1.0  0.36970  0.81975  0.31711  1.0000
  C   C17       1.0  0.42323  0.64742  0.34889  1.0000
  C   C18       1.0  0.35203  0.77686  0.32552  1.0000
  C   C19       1.0  0.44326  0.53403  0.30628  1.0000
  C   C20       1.0  0.46540  0.90927  0.29058  1.0000
  C   C21       1.0  0.09288  0.55369  0.30415  1.0000
  C   C22       1.0  0.46563  0.51175  0.29588  1.0000
  C   C23       1.0  0.48812  0.95399  0.28288  1.0000
  C   C24       1.0  0.04833  0.53077  0.30246  1.0000
  C   C25       1.0  0.44953  0.47072  0.35672  1.0000
  C   C26       1.0  0.52866  0.97899  0.34624  1.0000
  C   C27       1.0  0.02306  0.54611  0.37084  1.0000
  C   C28       1.0  0.47263  0.44993  0.34601  1.0000
  C   C29       1.0  0.54878  0.02304  0.34380  1.0000
  C   C30       1.0  0.97934  0.52229  0.36383  1.0000
  C   C31       1.0  0.56349  0.56863  0.08308  1.0000
  C   C32       1.0  0.43252  0.99530  0.07119  1.0000
  C   C33       1.0  0.00810  0.43199  0.09002  1.0000
  C   C34       1.0  0.71279  0.36071  0.25576  1.0000
  C   C35       1.0  0.64451  0.35440  0.26191  1.0000
  C   C36       1.0  0.65083  0.29189  0.26141  1.0000
  C   C37       1.0  0.68766  0.37881  0.25695  1.0000
  C   C38       1.0  0.62676  0.31106  0.26263  1.0000
  C   C39       1.0  0.69390  0.31722  0.25652  1.0000
  C   C40       1.0  0.53877  0.45088  0.24037  1.0000
  C   C41       1.0  0.54765  0.08842  0.24429  1.0000
  C   C42       1.0  0.91496  0.45509  0.26489  1.0000
  C   C43       1.0  0.51218  0.46900  0.26670  1.0000
  C   C44       1.0  0.53005  0.04370  0.26637  1.0000
  C   C45       1.0  0.95914  0.48240  0.28445  1.0000
  C   C46       1.0  0.52738  0.50914  0.19988  1.0000
  C   C47       1.0  0.49064  0.01867  0.19516  1.0000
  C   C48       1.0  0.98432  0.46732  0.21564  1.0000
  C   C49       1.0  0.50475  0.52985  0.21933  1.0000
  C   C50       1.0  0.47029  0.97519  0.20850  1.0000
  C   C51       1.0  0.02748  0.49108  0.22723  1.0000
  C   C52       1.0  0.59107  0.04728  0.42064  1.0000
  C   C53       1.0  0.95409  0.53961  0.44152  1.0000
  C   C54       1.0  0.45379  0.40654  0.41498  1.0000
  C   C55       1.0  0.55103  0.95856  0.41871  1.0000
  C   C56       1.0  0.04244  0.58857  0.45329  1.0000
  C   C57       1.0  0.40701  0.44957  0.43602  1.0000
  C   C58       1.0  0.28737  0.63942  0.76311  1.0000
  C   C59       1.0  0.35595  0.64653  0.76496  1.0000
  C   C60       1.0  0.34903  0.70854  0.76215  1.0000
  C   C61       1.0  0.31288  0.62185  0.76502  1.0000
  C   C62       1.0  0.37354  0.68983  0.76378  1.0000
  C   C63       1.0  0.30602  0.68289  0.76254  1.0000
  C   C64       1.0  0.24204  0.61268  0.76122  1.0000
  C   C65       1.0  0.36846  0.75426  0.75852  1.0000
  C   C66       1.0  0.40628  0.77869  0.67513  1.0000
  C   C67       1.0  0.21693  0.62562  0.68395  1.0000
  C   C68       1.0  0.42510  0.82182  0.67336  1.0000
  C   C69       1.0  0.17417  0.60076  0.68446  1.0000
  C   C70       1.0  0.40629  0.84219  0.75309  1.0000
  C   C71       1.0  0.15491  0.56125  0.75848  1.0000
  C   C72       1.0  0.36781  0.81791  0.83201  1.0000
  C   C73       1.0  0.17991  0.54745  0.83022  1.0000
  C   C74       1.0  0.34975  0.77491  0.83696  1.0000
  C   C75       1.0  0.22246  0.57303  0.83446  1.0000
  C   C76       1.0  0.44325  0.53493  0.79993  1.0000
  C   C77       1.0  0.46281  0.90812  0.78957  1.0000
  C   C78       1.0  0.08948  0.55141  0.80354  1.0000
  C   C79       1.0  0.46673  0.51384  0.78774  1.0000
  C   C80       1.0  0.48485  0.95294  0.77912  1.0000
  C   C81       1.0  0.04498  0.52838  0.80078  1.0000
  C   C82       1.0  0.45251  0.47293  0.84642  1.0000
  C   C83       1.0  0.52538  0.97882  0.84065  1.0000
  C   C84       1.0  0.01981  0.54392  0.86695  1.0000
  C   C85       1.0  0.47674  0.45348  0.82732  1.0000
  C   C86       1.0  0.54575  0.02276  0.82625  1.0000
  C   C87       1.0  0.97612  0.52073  0.85625  1.0000
  C   C88       1.0  0.56394  0.57494  0.57393  1.0000
  C   C89       1.0  0.42678  0.99217  0.57076  1.0000
  C   C90       1.0  0.00451  0.42969  0.58720  1.0000
  C   C91       1.0  0.70962  0.35804  0.74684  1.0000
  C   C92       1.0  0.64236  0.35381  0.75483  1.0000
  C   C93       1.0  0.64660  0.29016  0.75548  1.0000
  C   C94       1.0  0.68546  0.37714  0.74761  1.0000
  C   C95       1.0  0.62339  0.31033  0.75848  1.0000
  C   C96       1.0  0.68972  0.31452  0.74727  1.0000
  C   C97       1.0  0.61767  0.37464  0.76798  1.0000
  C   C98       1.0  0.62640  0.24456  0.76976  1.0000
  C   C99       1.0  0.63066  0.41342  0.69310  1.0000
  C   C100      1.0  0.58680  0.21809  0.70489  1.0000
  C   C101      1.0  0.60742  0.43306  0.70774  1.0000
  C   C102      1.0  0.56772  0.17518  0.72074  1.0000
  C   C103      1.0  0.56993  0.41423  0.79880  1.0000
  C   C104      1.0  0.58786  0.15712  0.80295  1.0000
  C   C105      1.0  0.55760  0.37615  0.87799  1.0000
  C   C106      1.0  0.62690  0.18354  0.87231  1.0000
  C   C107      1.0  0.58077  0.35659  0.86185  1.0000
  C   C108      1.0  0.64598  0.22631  0.85415  1.0000
  C   C109      1.0  0.54428  0.45814  0.72640  1.0000
  C   C110      1.0  0.54374  0.08728  0.72969  1.0000
  C   C111      1.0  0.91177  0.45456  0.74747  1.0000
  C   C112      1.0  0.51646  0.47461  0.75052  1.0000
  C   C113      1.0  0.52605  0.04258  0.75095  1.0000
  C   C114      1.0  0.95587  0.48108  0.77577  1.0000
  C   C115      1.0  0.53013  0.51484  0.68763  1.0000
  C   C116      1.0  0.48611  0.01683  0.68565  1.0000
  C   C117      1.0  0.98100  0.46571  0.70906  1.0000
  C   C118      1.0  0.50572  0.53354  0.70857  1.0000
  C   C119      1.0  0.46643  0.97341  0.70236  1.0000
  C   C120      1.0  0.02410  0.48874  0.72522  1.0000
  C   C121      1.0  0.58920  0.04743  0.89012  1.0000
  C   C122      1.0  0.95236  0.54006  0.93071  1.0000
  C   C123      1.0  0.45863  0.40942  0.88703  1.0000
  C   C124      1.0  0.54822  0.96033  0.92517  1.0000
  C   C125      1.0  0.03870  0.58595  0.95194  1.0000
  C   C126      1.0  0.41095  0.44877  0.93179  1.0000
  N   N1        1.0  0.45992  0.57303  0.26594  1.0000
  N   N2        1.0  0.42702  0.88740  0.24475  1.0000
  N   N3        1.0  0.11532  0.53798  0.25101  1.0000
  N   N4        1.0  0.52843  0.56789  0.14506  1.0000
  N   N5        1.0  0.43308  0.96078  0.12988  1.0000
  N   N6        1.0  0.04213  0.46785  0.14737  1.0000
  N   N7        1.0  0.56417  0.53422  0.11475  1.0000
  N   N8        1.0  0.46624  0.03051  0.10897  1.0000
  N   N9        1.0  0.97295  0.43040  0.12924  1.0000
  N   N10       1.0  0.53949  0.42419  0.34059  1.0000
  N   N11       1.0  0.57683  0.11632  0.33650  1.0000
  N   N12       1.0  0.88740  0.46431  0.31535  1.0000
  N   N13       1.0  0.45872  0.57363  0.75729  1.0000
  N   N14       1.0  0.42401  0.88557  0.75109  1.0000
  N   N15       1.0  0.11195  0.53494  0.76111  1.0000
  N   N16       1.0  0.52786  0.57196  0.63536  1.0000
  N   N17       1.0  0.42853  0.95822  0.62852  1.0000
  N   N18       1.0  0.03856  0.46512  0.64738  1.0000
  N   N19       1.0  0.56663  0.54153  0.60397  1.0000
  N   N20       1.0  0.46052  0.02780  0.60370  1.0000
  N   N21       1.0  0.96951  0.42877  0.62253  1.0000
  N   N22       1.0  0.54328  0.43008  0.82367  1.0000
  N   N23       1.0  0.57180  0.11451  0.82773  1.0000
  N   N24       1.0  0.88350  0.45901  0.82455  1.0000
  C  Sn1       1.0  0.78976  0.36713  0.73080  1.0000
  C   C127      1.0  0.75965  0.37636  0.78629  1.0000
  C  Sn2       1.0  0.77067  0.41661  0.83851  1.0000
  C  Sn3       1.0  0.81267  0.44832  0.83510  1.0000
  C   C128      1.0  0.84275  0.43909  0.77961  1.0000
  C  Sn4       1.0  0.83176  0.39883  0.72740  1.0000
  O  Te1       1.0  0.77804  0.32667  0.67917  1.0000
  O  Te2       1.0  0.74002  0.42508  0.89352  1.0000
  O  Te3       1.0  0.82437  0.48880  0.88680  1.0000
  O  Te4       1.0  0.86238  0.39036  0.67238  1.0000
  Mg  Mg1       1.0  0.77136  0.48499  0.95118  1.0000
  Mg  Mg2       1.0  0.83107  0.33047  0.61462  1.0000
  C  Sn5       1.0  0.56443  0.36986  0.42766  1.0000
  C   C129      1.0  0.57073  0.40725  0.36204  1.0000
  C  Sn6       1.0  0.60004  0.42732  0.23505  1.0000
  C  Sn7       1.0  0.62353  0.40964  0.17225  1.0000
  C   C130      1.0  0.61722  0.37227  0.23783  1.0000
  C  Sn8       1.0  0.58792  0.35217  0.36486  1.0000
  O  Te5       1.0  0.53496  0.35033  0.55457  1.0000
  O  Te6       1.0  0.60580  0.46469  0.17147  1.0000
  O  Te7       1.0  0.65302  0.42920  0.04524  1.0000
  O  Te8       1.0  0.58215  0.31483  0.42840  1.0000
  Mg  Mg3       1.0  0.64730  0.48182  0.99916  1.0000
  Mg  Mg4       1.0  0.53836  0.29996  0.60064  1.0000
  C  Sn9       1.0  0.65414  0.21859  0.32575  1.0000
  C   C131      1.0  0.63874  0.24164  0.25003  1.0000
  C  Sn10      1.0  0.59683  0.22333  0.21417  1.0000
  C  Sn11      1.0  0.56973  0.18112  0.25493  1.0000
  C   C132      1.0  0.58513  0.15811  0.33063  1.0000
  C  Sn12      1.0  0.62704  0.17638  0.36652  1.0000
  O  Te9       1.0  0.69615  0.23752  0.36047  1.0000
  O  Te10      1.0  0.58215  0.24700  0.13837  1.0000
  O  Te11      1.0  0.52769  0.16220  0.22014  1.0000
  O  Te12      1.0  0.64171  0.15274  0.44229  1.0000
  Mg  Mg5       1.0  0.52244  0.20730  0.11603  1.0000
  Mg  Mg6       1.0  0.70142  0.19241  0.46477  1.0000
  C  Sn13      1.0  0.39137  0.57724  0.63686  1.0000
  C   C133      1.0  0.42976  0.59187  0.71153  1.0000
  C  Sn14      1.0  0.44399  0.62380  0.83157  1.0000
  C  Sn15      1.0  0.41932  0.64146  0.87803  1.0000
  C   C134      1.0  0.38096  0.62683  0.80341  1.0000
  C  Sn16      1.0  0.36670  0.59491  0.68333  1.0000
  O  Te13      1.0  0.37775  0.54530  0.51715  1.0000
  O  Te14      1.0  0.48248  0.63792  0.90443  1.0000
  O  Te15      1.0  0.43297  0.67344  0.99785  1.0000
  O  Te16      1.0  0.32823  0.58079  0.61051  1.0000
  Mg  Mg7       1.0  0.48985  0.67976  0.06152  1.0000
  Mg  Mg8       1.0  0.32312  0.53664  0.45347  1.0000
  C  Sn17      1.0  0.19075  0.55901  0.37847  1.0000
  C   C135      1.0  0.16235  0.56611  0.29495  1.0000
  C  Sn18      1.0  0.17574  0.59748  0.17536  1.0000
  C  Sn19      1.0  0.21839  0.62226  0.13839  1.0000
  C   C136      1.0  0.24676  0.61515  0.22186  1.0000
  C  Sn20      1.0  0.23340  0.58379  0.34150  1.0000
  O  Te17      1.0  0.17667  0.52748  0.49756  1.0000
  O  Te18      1.0  0.14677  0.60399  0.09355  1.0000
  O  Te19      1.0  0.23245  0.65381  0.01920  1.0000
  O  Te20      1.0  0.26235  0.57727  0.42326  1.0000
  Mg  Mg9       1.0  0.17880  0.65299  0.94122  1.0000
  Mg  Mg10      1.0  0.22806  0.53057  0.57554  1.0000
  C  Sn21      1.0  0.79376  0.37205  0.21985  1.0000
  C   C137      1.0  0.76361  0.37947  0.29025  1.0000
  C  Sn22      1.0  0.77424  0.41875  0.35418  1.0000
  C  Sn23      1.0  0.81585  0.45129  0.34752  1.0000
  C   C138      1.0  0.84597  0.44386  0.27713  1.0000
  C  Sn24      1.0  0.83538  0.40459  0.21319  1.0000
  O  Te21      1.0  0.78244  0.33254  0.15669  1.0000
  O  Te22      1.0  0.74356  0.42542  0.42401  1.0000
  O  Te23      1.0  0.82716  0.49082  0.41077  1.0000
  O  Te24      1.0  0.86603  0.39792  0.14338  1.0000
  Mg  Mg11      1.0  0.77428  0.48459  0.49350  1.0000
  Mg  Mg12      1.0  0.83534  0.33877  0.07377  1.0000
