data_image0
_chemical_formula_structural       H48C72N24C2Sn2C2HTe2HMgC2Sn2C2HTe2HMgC2Sn2C2HTe2HMgC2Sn2C2HTe2HMgC2Sn2C2HTe2HMgC2Sn2C2HTe2HMg
_chemical_formula_sum              "H60 C96 N24 Sn12 Te12 Mg6"
_cell_length_a       33.3432
_cell_length_b       33.2568
_cell_length_c       8.09023
_cell_angle_alpha    65.0713
_cell_angle_beta     120.43
_cell_angle_gamma    119.991

_symmetry_space_group_name_H-M    'P1'
_space_group_IT_number       1

loop_
  _space_group_symop_operation_xyz
  'x, y, z'

loop_
  _atom_site_type_symbol
  _atom_site_label
  _atom_site_symmetry_multiplicity
  _atom_site_fract_x
  _atom_site_fract_y
  _atom_site_fract_z
  _atom_site_occupancy
  H   H1        1.0  0.43825  0.66436  0.01126  1.0000
  H   H2        1.0  0.34911  0.77213  0.07637  1.0000
  H   H3        1.0  0.22304  0.57133  0.93374  1.0000
  H   H4        1.0  0.56826  0.34504  0.98618  1.0000
  H   H5        1.0  0.65695  0.23382  0.93837  1.0000
  H   H6        1.0  0.78509  0.43195  0.07920  1.0000
  H   H7        1.0  0.47648  0.64991  0.92228  1.0000
  H   H8        1.0  0.35607  0.84373  0.97453  1.0000
  H   H9        1.0  0.64360  0.16304  0.99993  1.0000
  H   H10       1.0  0.84180  0.48497  0.98189  1.0000
  H   H11       1.0  0.42033  0.72605  0.00723  1.0000
  H   H12       1.0  0.27967  0.69545  0.01685  1.0000
  H   H13       1.0  0.30431  0.58736  0.95854  1.0000
  H   H14       1.0  0.58435  0.28206  0.99450  1.0000
  H   H15       1.0  0.72438  0.30828  0.99223  1.0000
  H   H16       1.0  0.70363  0.41898  0.04999  1.0000
  H   H17       1.0  0.36870  0.50872  0.02508  1.0000
  H   H18       1.0  0.49379  0.85994  0.98577  1.0000
  H   H19       1.0  0.50663  0.14818  0.99013  1.0000
  H   H20       1.0  0.85736  0.36261  0.99616  1.0000
  H   H21       1.0  0.53040  0.61524  0.94219  1.0000
  H   H22       1.0  0.39105  0.92969  0.97624  1.0000
  H   H23       1.0  0.60761  0.07723  0.99567  1.0000
  H   H24       1.0  0.92852  0.53428  0.99217  1.0000
  H   H25       1.0  0.42340  0.47425  0.04286  1.0000
  H   H26       1.0  0.52843  0.94690  0.98648  1.0000
  H   H27       1.0  0.47087  0.06133  0.98790  1.0000
  H   H28       1.0  0.94498  0.41289  0.00534  1.0000
  H   H29       1.0  0.43198  0.65477  0.51100  1.0000
  H   H30       1.0  0.34787  0.76689  0.57694  1.0000
  H   H31       1.0  0.21790  0.56678  0.44256  1.0000
  H   H32       1.0  0.56111  0.33558  0.48185  1.0000
  H   H33       1.0  0.66051  0.22702  0.47501  1.0000
  H   H34       1.0  0.77720  0.42925  0.57166  1.0000
  H   H35       1.0  0.35588  0.83787  0.48514  1.0000
  H   H36       1.0  0.64116  0.15819  0.48078  1.0000
  H   H37       1.0  0.41626  0.71794  0.50329  1.0000
  H   H38       1.0  0.27741  0.69203  0.51583  1.0000
  H   H39       1.0  0.29746  0.58056  0.46060  1.0000
  H   H40       1.0  0.57978  0.27386  0.48790  1.0000
  H   H41       1.0  0.72347  0.30410  0.50658  1.0000
  H   H42       1.0  0.69539  0.41258  0.54423  1.0000
  H   H43       1.0  0.49060  0.85410  0.47099  1.0000
  H   H44       1.0  0.50622  0.14121  0.49629  1.0000
  H   H45       1.0  0.39194  0.92350  0.49143  1.0000
  H   H46       1.0  0.60642  0.07235  0.48322  1.0000
  H   H47       1.0  0.52625  0.94092  0.47388  1.0000
  H   H48       1.0  0.47128  0.05423  0.49699  1.0000
  C   C1        1.0  0.31692  0.62339  0.97212  1.0000
  C   C2        1.0  0.38289  0.70101  0.00081  1.0000
  C   C3        1.0  0.30388  0.68486  0.00406  1.0000
  C   C4        1.0  0.68995  0.38282  0.03537  1.0000
  C   C5        1.0  0.62218  0.30620  0.00297  1.0000
  C   C6        1.0  0.70078  0.31996  0.00345  1.0000
  C   C7        1.0  0.39975  0.63844  0.98661  1.0000
  C   C8        1.0  0.36954  0.76556  0.02416  1.0000
  C   C9        1.0  0.23585  0.60442  0.97588  1.0000
  C   C10       1.0  0.60718  0.37015  0.01569  1.0000
  C   C11       1.0  0.63384  0.24083  0.97540  1.0000
  C   C12       1.0  0.77073  0.39877  0.03490  1.0000
  C   C13       1.0  0.41883  0.58115  0.97497  1.0000
  C   C14       1.0  0.42346  0.84577  0.98557  1.0000
  C   C15       1.0  0.57671  0.16168  0.99106  1.0000
  C   C16       1.0  0.84425  0.41964  0.99475  1.0000
  C   C17       1.0  0.46477  0.61147  0.95082  1.0000
  C   C18       1.0  0.39399  0.86573  0.97983  1.0000
  C   C19       1.0  0.60564  0.14139  0.99485  1.0000
  C   C20       1.0  0.86418  0.46868  0.98973  1.0000
  C   C21       1.0  0.49501  0.59247  0.96149  1.0000
  C   C22       1.0  0.41299  0.91367  0.97894  1.0000
  C   C23       1.0  0.58602  0.09352  0.99391  1.0000
  C   C24       1.0  0.91246  0.49648  0.99462  1.0000
  C   C25       1.0  0.48018  0.54286  0.99407  1.0000
  C   C26       1.0  0.46173  0.94304  0.98296  1.0000
  C   C27       1.0  0.53722  0.06439  0.99024  1.0000
  C   C28       1.0  0.94213  0.47650  0.00258  1.0000
  C   C29       1.0  0.43423  0.51242  0.01724  1.0000
  C   C30       1.0  0.49130  0.92344  0.98742  1.0000
  C   C31       1.0  0.50811  0.08433  0.98693  1.0000
  C   C32       1.0  0.92216  0.42775  0.00349  1.0000
  C   C33       1.0  0.40419  0.53147  0.00665  1.0000
  C   C34       1.0  0.47216  0.87566  0.98718  1.0000
  C   C35       1.0  0.52786  0.13213  0.98805  1.0000
  C   C36       1.0  0.87390  0.40014  0.99815  1.0000
  C   C37       1.0  0.36597  0.65444  0.98467  1.0000
  C   C38       1.0  0.35181  0.71670  0.00859  1.0000
  C   C39       1.0  0.28588  0.63814  0.98274  1.0000
  C   C40       1.0  0.64047  0.35292  0.02081  1.0000
  C   C41       1.0  0.65231  0.28934  0.99527  1.0000
  C   C42       1.0  0.72016  0.36672  0.02614  1.0000
  C   C43       1.0  0.31120  0.61696  0.47270  1.0000
  C   C44       1.0  0.37860  0.69387  0.49754  1.0000
  C   C45       1.0  0.30071  0.68030  0.50290  1.0000
  C   C46       1.0  0.68332  0.37654  0.53203  1.0000
  C   C47       1.0  0.61752  0.29890  0.49897  1.0000
  C   C48       1.0  0.69821  0.31488  0.51133  1.0000
  C   C49       1.0  0.39325  0.62945  0.48638  1.0000
  C   C50       1.0  0.36764  0.75993  0.52288  1.0000
  C   C51       1.0  0.23113  0.60080  0.47846  1.0000
  C   C52       1.0  0.59984  0.36117  0.51157  1.0000
  C   C53       1.0  0.63362  0.23446  0.48737  1.0000
  C   C54       1.0  0.76528  0.39563  0.53556  1.0000
  C   C55       1.0  0.42180  0.83991  0.48343  1.0000
  C   C56       1.0  0.57554  0.15563  0.48808  1.0000
  C   C57       1.0  0.39340  0.85980  0.48564  1.0000
  C   C58       1.0  0.60412  0.13599  0.48527  1.0000
  C   C59       1.0  0.41302  0.90763  0.48719  1.0000
  C   C60       1.0  0.58505  0.08804  0.48668  1.0000
  C   C61       1.0  0.46122  0.93704  0.48471  1.0000
  C   C62       1.0  0.53694  0.05832  0.49007  1.0000
  C   C63       1.0  0.48960  0.91753  0.48029  1.0000
  C   C64       1.0  0.50805  0.07766  0.49190  1.0000
  C   C65       1.0  0.46991  0.86979  0.47869  1.0000
  C   C66       1.0  0.52735  0.12549  0.49149  1.0000
  C   C67       1.0  0.36031  0.64689  0.48259  1.0000
  C   C68       1.0  0.34884  0.71098  0.50638  1.0000
  C   C69       1.0  0.28131  0.63325  0.48310  1.0000
  C   C70       1.0  0.63401  0.34534  0.51545  1.0000
  C   C71       1.0  0.64977  0.28315  0.49954  1.0000
  C   C72       1.0  0.71529  0.36182  0.52783  1.0000
  N   N1        1.0  0.38545  0.59611  0.96782  1.0000
  N   N2        1.0  0.40742  0.79847  0.97929  1.0000
  N   N3        1.0  0.20902  0.61364  0.01732  1.0000
  N   N4        1.0  0.62221  0.41246  0.03677  1.0000
  N   N5        1.0  0.59307  0.20882  0.00037  1.0000
  N   N6        1.0  0.79639  0.38809  0.99266  1.0000
  N   N7        1.0  0.51325  0.52767  0.99848  1.0000
  N   N8        1.0  0.47670  0.99103  0.97983  1.0000
  N   N9        1.0  0.01608  0.48989  0.00682  1.0000
  N   N10       1.0  0.49644  0.48283  0.01044  1.0000
  N   N11       1.0  0.52200  0.01641  0.99273  1.0000
  N   N12       1.0  0.98989  0.50854  0.00275  1.0000
  N   N13       1.0  0.37834  0.58671  0.47027  1.0000
  N   N14       1.0  0.40528  0.79259  0.47591  1.0000
  N   N15       1.0  0.20469  0.61179  0.51510  1.0000
  N   N16       1.0  0.61439  0.40297  0.53619  1.0000
  N   N17       1.0  0.59077  0.20286  0.49323  1.0000
  N   N18       1.0  0.79272  0.38597  0.49923  1.0000
  N   N19       1.0  0.50443  0.51617  0.50181  1.0000
  N   N20       1.0  0.47678  0.98491  0.48417  1.0000
  N   N21       1.0  0.01093  0.49139  0.50377  1.0000
  N   N22       1.0  0.48757  0.47130  0.51433  1.0000
  N   N23       1.0  0.52165  0.01039  0.49161  1.0000
  N   N24       1.0  0.98533  0.50986  0.50514  1.0000
  C   C73       1.0  0.10528  0.50501  0.00667  1.0000
  C   C74       1.0  0.07163  0.51610  0.01819  1.0000
  C  Sn1       1.0  0.08352  0.56244  0.02230  1.0000
  C  Sn2       1.0  0.12999  0.59826  0.01467  1.0000
  C   C75       1.0  0.16339  0.58680  0.00302  1.0000
  C   C76       1.0  0.24679  0.48573  0.99906  1.0000
  H   H49       1.0  0.09578  0.46905  0.00350  1.0000
  O  Te1       1.0  0.04947  0.57291  0.03391  1.0000
  O  Te2       1.0  0.14281  0.64486  0.01848  1.0000
  H   H50       1.0  0.27284  0.47716  0.99001  1.0000
  Mg  Mg1       1.0  0.08398  0.64161  0.03509  1.0000
  C   C77       1.0  0.58821  0.49914  0.99969  1.0000
  C   C78       1.0  0.53976  0.47649  0.99872  1.0000
  C  Sn3       1.0  0.42054  0.48162  0.02345  1.0000
  C  Sn4       1.0  0.44608  0.45443  0.04967  1.0000
  C   C79       1.0  0.49456  0.47742  0.05055  1.0000
  C   C80       1.0  0.51775  0.52693  0.02562  1.0000
  H   H51       1.0  0.60617  0.53744  0.98051  1.0000
  O  Te3       1.0  0.37211  0.45957  0.02203  1.0000
  O  Te4       1.0  0.42344  0.40496  0.07478  1.0000
  H   H52       1.0  0.55528  0.54445  0.02650  1.0000
  Mg  Mg2       1.0  0.35702  0.39125  0.06194  1.0000
  C   C81       1.0  0.90744  0.41734  0.49561  1.0000
  C   C82       1.0  0.93257  0.46616  0.48901  1.0000
  C  Sn5       1.0  0.91088  0.49191  0.49529  1.0000
  C  Sn6       1.0  0.86314  0.46824  0.50847  1.0000
  C   C83       1.0  0.83832  0.41939  0.51513  1.0000
  C   C84       1.0  0.86036  0.39397  0.50869  1.0000
  H   H53       1.0  0.92450  0.39767  0.49074  1.0000
  O  Te5       1.0  0.93650  0.54066  0.48847  1.0000
  O  Te6       1.0  0.84061  0.49311  0.51505  1.0000
  H   H54       1.0  0.84090  0.35617  0.51393  1.0000
  Mg  Mg3       1.0  0.89031  0.55911  0.50158  1.0000
  C   C85       1.0  0.57990  0.48823  0.50674  1.0000
  C   C86       1.0  0.53126  0.46523  0.50400  1.0000
  C  Sn7       1.0  0.50777  0.41586  0.52510  1.0000
  C  Sn8       1.0  0.53354  0.38911  0.54943  1.0000
  C   C87       1.0  0.58220  0.41246  0.55211  1.0000
  C   C88       1.0  0.60535  0.46188  0.53080  1.0000
  H   H55       1.0  0.59782  0.52646  0.49037  1.0000
  O  Te7       1.0  0.45916  0.39344  0.52196  1.0000
  O  Te8       1.0  0.51095  0.33973  0.57091  1.0000
  H   H56       1.0  0.64301  0.47968  0.53306  1.0000
  Mg  Mg4       1.0  0.44422  0.32541  0.55689  1.0000
  C   C89       1.0  0.12512  0.51978  0.50307  1.0000
  C   C90       1.0  0.15172  0.56824  0.50258  1.0000
  C  Sn9       1.0  0.13144  0.59452  0.51398  1.0000
  C  Sn10      1.0  0.08363  0.57176  0.52613  1.0000
  C   C91       1.0  0.05733  0.52326  0.52665  1.0000
  C   C92       1.0  0.07798  0.49731  0.51512  1.0000
  H   H57       1.0  0.14110  0.49969  0.49425  1.0000
  O  Te9       1.0  0.15851  0.64290  0.51325  1.0000
  O  Te10      1.0  0.06249  0.59718  0.53775  1.0000
  H   H58       1.0  0.05738  0.45978  0.51563  1.0000
  Mg  Mg5       1.0  0.11389  0.66236  0.53169  1.0000
  C   C93       1.0  0.41617  0.49952  0.54067  1.0000
  C   C94       1.0  0.45950  0.52275  0.49923  1.0000
  C  Sn11      1.0  0.48039  0.57249  0.45278  1.0000
  C  Sn12      1.0  0.45741  0.59938  0.44790  1.0000
  C   C95       1.0  0.41409  0.57580  0.48972  1.0000
  C   C96       1.0  0.39349  0.52601  0.53596  1.0000
  H   H59       1.0  0.40024  0.46100  0.57656  1.0000
  O  Te11      1.0  0.52369  0.59513  0.41169  1.0000
  O  Te12      1.0  0.47751  0.64913  0.40199  1.0000
  H   H60       1.0  0.35996  0.50804  0.56817  1.0000
  Mg  Mg6       1.0  0.53694  0.66364  0.35690  1.0000
