data_image0
_chemical_formula_structural       H48C72N24SnCSn2CSnTe4Mg2SnCSn2CSnTe4Mg2SnCSn2CSnTe4Mg2SnCSn2CSnTe4Mg2SnCSn2CSnTe4Mg2SnCSn2CSnTe4Mg2
_chemical_formula_sum              "H48 C84 N24 Sn24 Te24 Mg12"
_cell_length_a       33.3432
_cell_length_b       33.2568
_cell_length_c       8.09023
_cell_angle_alpha    65.0713
_cell_angle_beta     120.43
_cell_angle_gamma    119.991

_symmetry_space_group_name_H-M    'P1'
_space_group_IT_number       1

loop_
  _space_group_symop_operation_xyz
  'x, y, z'

loop_
  _atom_site_type_symbol
  _atom_site_label
  _atom_site_symmetry_multiplicity
  _atom_site_fract_x
  _atom_site_fract_y
  _atom_site_fract_z
  _atom_site_occupancy
  H   H1        1.0  0.43825  0.66436  0.01126  1.0000
  H   H2        1.0  0.34911  0.77213  0.07637  1.0000
  H   H3        1.0  0.22304  0.57133  0.93374  1.0000
  H   H4        1.0  0.56826  0.34504  0.98618  1.0000
  H   H5        1.0  0.65695  0.23382  0.93837  1.0000
  H   H6        1.0  0.78509  0.43195  0.07920  1.0000
  H   H7        1.0  0.47648  0.64991  0.92228  1.0000
  H   H8        1.0  0.35607  0.84373  0.97453  1.0000
  H   H9        1.0  0.84180  0.48497  0.98189  1.0000
  H   H10       1.0  0.42033  0.72605  0.00723  1.0000
  H   H11       1.0  0.27967  0.69545  0.01685  1.0000
  H   H12       1.0  0.30431  0.58736  0.95854  1.0000
  H   H13       1.0  0.58435  0.28206  0.99450  1.0000
  H   H14       1.0  0.72438  0.30828  0.99223  1.0000
  H   H15       1.0  0.70363  0.41898  0.04999  1.0000
  H   H16       1.0  0.36870  0.50872  0.02508  1.0000
  H   H17       1.0  0.49379  0.85994  0.98577  1.0000
  H   H18       1.0  0.85736  0.36261  0.99616  1.0000
  H   H19       1.0  0.53040  0.61524  0.94219  1.0000
  H   H20       1.0  0.39105  0.92969  0.97624  1.0000
  H   H21       1.0  0.92852  0.53428  0.99217  1.0000
  H   H22       1.0  0.42340  0.47425  0.04286  1.0000
  H   H23       1.0  0.52843  0.94690  0.98648  1.0000
  H   H24       1.0  0.94498  0.41289  0.00534  1.0000
  H   H25       1.0  0.43198  0.65477  0.51100  1.0000
  H   H26       1.0  0.34787  0.76689  0.57694  1.0000
  H   H27       1.0  0.21790  0.56678  0.44256  1.0000
  H   H28       1.0  0.56111  0.33558  0.48185  1.0000
  H   H29       1.0  0.66051  0.22702  0.47501  1.0000
  H   H30       1.0  0.77720  0.42925  0.57166  1.0000
  H   H31       1.0  0.46748  0.63933  0.41179  1.0000
  H   H32       1.0  0.35588  0.83787  0.48514  1.0000
  H   H33       1.0  0.15590  0.51637  0.49249  1.0000
  H   H34       1.0  0.41626  0.71794  0.50329  1.0000
  H   H35       1.0  0.27741  0.69203  0.51583  1.0000
  H   H36       1.0  0.29746  0.58056  0.46060  1.0000
  H   H37       1.0  0.57978  0.27386  0.48790  1.0000
  H   H38       1.0  0.72347  0.30410  0.50658  1.0000
  H   H39       1.0  0.69539  0.41258  0.54423  1.0000
  H   H40       1.0  0.36266  0.49863  0.54570  1.0000
  H   H41       1.0  0.49060  0.85410  0.47099  1.0000
  H   H42       1.0  0.14640  0.63520  0.53997  1.0000
  H   H43       1.0  0.52088  0.60376  0.43279  1.0000
  H   H44       1.0  0.39194  0.92350  0.49143  1.0000
  H   H45       1.0  0.06953  0.46725  0.48548  1.0000
  H   H46       1.0  0.41701  0.46326  0.56618  1.0000
  H   H47       1.0  0.52625  0.94092  0.47388  1.0000
  H   H48       1.0  0.05891  0.58490  0.53326  1.0000
  C   C1        1.0  0.31692  0.62339  0.97212  1.0000
  C   C2        1.0  0.38289  0.70101  0.00081  1.0000
  C   C3        1.0  0.30388  0.68486  0.00406  1.0000
  C   C4        1.0  0.68995  0.38282  0.03537  1.0000
  C   C5        1.0  0.62218  0.30620  0.00297  1.0000
  C   C6        1.0  0.70078  0.31996  0.00345  1.0000
  C   C7        1.0  0.39975  0.63844  0.98661  1.0000
  C   C8        1.0  0.36954  0.76556  0.02416  1.0000
  C   C9        1.0  0.23585  0.60442  0.97588  1.0000
  C   C10       1.0  0.60718  0.37015  0.01569  1.0000
  C   C11       1.0  0.63384  0.24083  0.97540  1.0000
  C   C12       1.0  0.77073  0.39877  0.03490  1.0000
  C   C13       1.0  0.41883  0.58115  0.97497  1.0000
  C   C14       1.0  0.42346  0.84577  0.98557  1.0000
  C   C15       1.0  0.84425  0.41964  0.99475  1.0000
  C   C16       1.0  0.46477  0.61147  0.95082  1.0000
  C   C17       1.0  0.39399  0.86573  0.97983  1.0000
  C   C18       1.0  0.86418  0.46868  0.98973  1.0000
  C   C19       1.0  0.49501  0.59247  0.96149  1.0000
  C   C20       1.0  0.41299  0.91367  0.97894  1.0000
  C   C21       1.0  0.91246  0.49648  0.99462  1.0000
  C   C22       1.0  0.48018  0.54286  0.99407  1.0000
  C   C23       1.0  0.46173  0.94304  0.98296  1.0000
  C   C24       1.0  0.94213  0.47650  0.00258  1.0000
  C   C25       1.0  0.43423  0.51242  0.01724  1.0000
  C   C26       1.0  0.49130  0.92344  0.98742  1.0000
  C   C27       1.0  0.92216  0.42775  0.00349  1.0000
  C   C28       1.0  0.40419  0.53147  0.00665  1.0000
  C   C29       1.0  0.47216  0.87566  0.98718  1.0000
  C   C30       1.0  0.87390  0.40014  0.99815  1.0000
  C   C31       1.0  0.36597  0.65444  0.98467  1.0000
  C   C32       1.0  0.35181  0.71670  0.00859  1.0000
  C   C33       1.0  0.28588  0.63814  0.98274  1.0000
  C   C34       1.0  0.64047  0.35292  0.02081  1.0000
  C   C35       1.0  0.65231  0.28934  0.99527  1.0000
  C   C36       1.0  0.72016  0.36672  0.02614  1.0000
  C   C37       1.0  0.31120  0.61696  0.47270  1.0000
  C   C38       1.0  0.37860  0.69387  0.49754  1.0000
  C   C39       1.0  0.30071  0.68030  0.50290  1.0000
  C   C40       1.0  0.68332  0.37654  0.53203  1.0000
  C   C41       1.0  0.61752  0.29890  0.49897  1.0000
  C   C42       1.0  0.69821  0.31488  0.51133  1.0000
  C   C43       1.0  0.39325  0.62945  0.48638  1.0000
  C   C44       1.0  0.36764  0.75993  0.52288  1.0000
  C   C45       1.0  0.23113  0.60080  0.47846  1.0000
  C   C46       1.0  0.59984  0.36117  0.51157  1.0000
  C   C47       1.0  0.63362  0.23446  0.48737  1.0000
  C   C48       1.0  0.76528  0.39563  0.53556  1.0000
  C   C49       1.0  0.41134  0.57094  0.47908  1.0000
  C   C50       1.0  0.42180  0.83991  0.48343  1.0000
  C   C51       1.0  0.15680  0.57996  0.51311  1.0000
  C   C52       1.0  0.45648  0.60084  0.44806  1.0000
  C   C53       1.0  0.39340  0.85980  0.48564  1.0000
  C   C54       1.0  0.13519  0.53190  0.50096  1.0000
  C   C55       1.0  0.48631  0.58140  0.45889  1.0000
  C   C56       1.0  0.41302  0.90763  0.48719  1.0000
  C   C57       1.0  0.08704  0.50415  0.49752  1.0000
  C   C58       1.0  0.47190  0.53167  0.49909  1.0000
  C   C59       1.0  0.46122  0.93704  0.48471  1.0000
  C   C60       1.0  0.05897  0.52319  0.50657  1.0000
  C   C61       1.0  0.42712  0.50154  0.53200  1.0000
  C   C62       1.0  0.48960  0.91753  0.48029  1.0000
  C   C63       1.0  0.08050  0.57090  0.52196  1.0000
  C   C64       1.0  0.39731  0.52105  0.52025  1.0000
  C   C65       1.0  0.46991  0.86979  0.47869  1.0000
  C   C66       1.0  0.12868  0.59846  0.52592  1.0000
  C   C67       1.0  0.36031  0.64689  0.48259  1.0000
  C   C68       1.0  0.34884  0.71098  0.50638  1.0000
  C   C69       1.0  0.28131  0.63325  0.48310  1.0000
  C   C70       1.0  0.63401  0.34534  0.51545  1.0000
  C   C71       1.0  0.64977  0.28315  0.49954  1.0000
  C   C72       1.0  0.71529  0.36182  0.52783  1.0000
  N   N1        1.0  0.38545  0.59611  0.96782  1.0000
  N   N2        1.0  0.40742  0.79847  0.97929  1.0000
  N   N3        1.0  0.20902  0.61364  0.01732  1.0000
  N   N4        1.0  0.62221  0.41246  0.03677  1.0000
  N   N5        1.0  0.59307  0.20882  0.00037  1.0000
  N   N6        1.0  0.79639  0.38809  0.99266  1.0000
  N   N7        1.0  0.51325  0.52767  0.99848  1.0000
  N   N8        1.0  0.47670  0.99103  0.97983  1.0000
  N   N9        1.0  0.01608  0.48989  0.00682  1.0000
  N   N10       1.0  0.49644  0.48283  0.01044  1.0000
  N   N11       1.0  0.52200  0.01641  0.99273  1.0000
  N   N12       1.0  0.98989  0.50854  0.00275  1.0000
  N   N13       1.0  0.37834  0.58671  0.47027  1.0000
  N   N14       1.0  0.40528  0.79259  0.47591  1.0000
  N   N15       1.0  0.20469  0.61179  0.51510  1.0000
  N   N16       1.0  0.61439  0.40297  0.53619  1.0000
  N   N17       1.0  0.59077  0.20286  0.49323  1.0000
  N   N18       1.0  0.79272  0.38597  0.49923  1.0000
  N   N19       1.0  0.50443  0.51617  0.50181  1.0000
  N   N20       1.0  0.47678  0.98491  0.48417  1.0000
  N   N21       1.0  0.01093  0.49139  0.50377  1.0000
  N   N22       1.0  0.48757  0.47130  0.51433  1.0000
  N   N23       1.0  0.52165  0.01039  0.49161  1.0000
  N   N24       1.0  0.98533  0.50986  0.50514  1.0000
  C  Sn1       1.0  0.90311  0.48858  0.56753  1.0000
  C   C73       1.0  0.93615  0.47645  0.55692  1.0000
  C  Sn2       1.0  0.91895  0.43522  0.49581  1.0000
  C  Sn3       1.0  0.86764  0.40551  0.44411  1.0000
  C   C74       1.0  0.83463  0.41764  0.45470  1.0000
  C  Sn4       1.0  0.85181  0.45887  0.51583  1.0000
  O  Te1       1.0  0.92113  0.52997  0.62901  1.0000
  O  Te2       1.0  0.95269  0.42383  0.48644  1.0000
  O  Te3       1.0  0.84964  0.36410  0.38261  1.0000
  O  Te4       1.0  0.81809  0.47027  0.52518  1.0000
  Mg  Mg1       1.0  0.91015  0.36373  0.39384  1.0000
  Mg  Mg2       1.0  0.86058  0.53037  0.61766  1.0000
  C  Sn5       1.0  0.59711  0.12933  0.42562  1.0000
  C   C75       1.0  0.57487  0.15430  0.43362  1.0000
  C  Sn6       1.0  0.53374  0.12977  0.48966  1.0000
  C  Sn7       1.0  0.51446  0.07923  0.53886  1.0000
  C   C76       1.0  0.53670  0.05429  0.53087  1.0000
  C  Sn8       1.0  0.57783  0.07880  0.47481  1.0000
  O  Te5       1.0  0.63820  0.15459  0.36921  1.0000
  O  Te6       1.0  0.51213  0.15550  0.49650  1.0000
  O  Te7       1.0  0.47334  0.05398  0.59529  1.0000
  O  Te8       1.0  0.59945  0.05309  0.46799  1.0000
  Mg  Mg3       1.0  0.45682  0.10500  0.58223  1.0000
  Mg  Mg4       1.0  0.65477  0.10355  0.38239  1.0000
  C  Sn9       1.0  0.56973  0.48714  0.44369  1.0000
  C   C77       1.0  0.52326  0.46266  0.46169  1.0000
  C  Sn10      1.0  0.50661  0.41337  0.53502  1.0000
  C  Sn11      1.0  0.53707  0.38801  0.59167  1.0000
  C   C78       1.0  0.58352  0.41248  0.57369  1.0000
  C  Sn12      1.0  0.60019  0.46177  0.50034  1.0000
  O  Te9       1.0  0.58562  0.53642  0.37002  1.0000
  O  Te10      1.0  0.46000  0.38969  0.55160  1.0000
  O  Te11      1.0  0.52113  0.33869  0.66538  1.0000
  O  Te12      1.0  0.64678  0.48546  0.48378  1.0000
  Mg  Mg5       1.0  0.45478  0.32238  0.66029  1.0000
  Mg  Mg6       1.0  0.65204  0.55276  0.37521  1.0000
  C  Sn13      1.0  0.57791  0.49778  0.93699  1.0000
  C   C79       1.0  0.53166  0.47375  0.95679  1.0000
  C  Sn14      1.0  0.41941  0.47919  0.03352  1.0000
  C  Sn15      1.0  0.44971  0.45353  0.09181  1.0000
  C   C80       1.0  0.49593  0.47756  0.07205  1.0000
  C  Sn16      1.0  0.60822  0.47212  0.99529  1.0000
  O  Te13      1.0  0.59374  0.54692  0.85992  1.0000
  O  Te14      1.0  0.37302  0.45595  0.05183  1.0000
  O  Te15      1.0  0.43384  0.40435  0.16893  1.0000
  O  Te16      1.0  0.65458  0.49536  0.97700  1.0000
  Mg  Mg7       1.0  0.36781  0.38867  0.16512  1.0000
  Mg  Mg8       1.0  0.65983  0.56263  0.86383  1.0000
  C  Sn17      1.0  0.10986  0.50346  0.07143  1.0000
  C   C81       1.0  0.07497  0.51669  0.06258  1.0000
  C  Sn18      1.0  0.08204  0.56476  0.01337  1.0000
  C  Sn19      1.0  0.22053  0.54576  0.97203  1.0000
  C   C82       1.0  0.25539  0.53252  0.98086  1.0000
  C  Sn20      1.0  0.15268  0.53905  0.03009  1.0000
  O  Te17      1.0  0.10204  0.45519  0.12093  1.0000
  O  Te18      1.0  0.04665  0.57711  0.00553  1.0000
  O  Te19      1.0  0.22834  0.59406  0.92251  1.0000
  O  Te20      1.0  0.18804  0.52669  0.03791  1.0000
  Mg  Mg9       1.0  0.16954  0.59303  0.93107  1.0000
  Mg  Mg10      1.0  0.16085  0.45620  0.11224  1.0000
  C  Sn21      1.0  0.59909  0.13503  0.93490  1.0000
  C   C83       1.0  0.57670  0.16036  0.93967  1.0000
  C  Sn22      1.0  0.53439  0.13620  0.98811  1.0000
  C  Sn23      1.0  0.41836  0.14025  0.03283  1.0000
  C   C84       1.0  0.44074  0.11495  0.02809  1.0000
  C  Sn24      1.0  0.57874  0.08450  0.97963  1.0000
  O  Te21      1.0  0.64137  0.15993  0.88610  1.0000
  O  Te22      1.0  0.51265  0.16229  0.99184  1.0000
  O  Te23      1.0  0.37604  0.11536  0.08165  1.0000
  O  Te24      1.0  0.60047  0.05843  0.97592  1.0000
  Mg  Mg11      1.0  0.35984  0.16679  0.06693  1.0000
  Mg  Mg12      1.0  0.65762  0.10848  0.90095  1.0000
