data_image0
_chemical_formula_structural       H24C36N24SnCSn2CSnTe4Mg2SnCSn2CSnTe4Mg2SnCSn2CSnTe4Mg2SnCSn2CSnTe4Mg2SnCSn2CSnTe4Mg2SnCSn2CSnTe4Mg2SnCSn2CSnTe4Mg2SnCSn2CSnTe4Mg2SnCSn2CSnTe4Mg2SnCSn2CSnTe4Mg2SnCSn2CSnTe4Mg2SnCSn2CSnTe4Mg2
_chemical_formula_sum              "H24 C60 N24 Sn48 Te48 Mg24"
_cell_length_a       33.3432
_cell_length_b       33.2568
_cell_length_c       8.09023
_cell_angle_alpha    65.0713
_cell_angle_beta     120.43
_cell_angle_gamma    119.991

_symmetry_space_group_name_H-M    'P1'
_space_group_IT_number       1

loop_
  _space_group_symop_operation_xyz
  'x, y, z'

loop_
  _atom_site_type_symbol
  _atom_site_label
  _atom_site_symmetry_multiplicity
  _atom_site_fract_x
  _atom_site_fract_y
  _atom_site_fract_z
  _atom_site_occupancy
  H   H1        1.0  0.43825  0.66436  0.01126  1.0000
  H   H2        1.0  0.34911  0.77213  0.07637  1.0000
  H   H3        1.0  0.22304  0.57133  0.93374  1.0000
  H   H4        1.0  0.56826  0.34504  0.98618  1.0000
  H   H5        1.0  0.65695  0.23382  0.93837  1.0000
  H   H6        1.0  0.78509  0.43195  0.07920  1.0000
  H   H7        1.0  0.42033  0.72605  0.00723  1.0000
  H   H8        1.0  0.27967  0.69545  0.01685  1.0000
  H   H9        1.0  0.30431  0.58736  0.95854  1.0000
  H   H10       1.0  0.58435  0.28206  0.99450  1.0000
  H   H11       1.0  0.72438  0.30828  0.99223  1.0000
  H   H12       1.0  0.70363  0.41898  0.04999  1.0000
  H   H13       1.0  0.43198  0.65477  0.51100  1.0000
  H   H14       1.0  0.34787  0.76689  0.57694  1.0000
  H   H15       1.0  0.21790  0.56678  0.44256  1.0000
  H   H16       1.0  0.56111  0.33558  0.48185  1.0000
  H   H17       1.0  0.66051  0.22702  0.47501  1.0000
  H   H18       1.0  0.77720  0.42925  0.57166  1.0000
  H   H19       1.0  0.41626  0.71794  0.50329  1.0000
  H   H20       1.0  0.27741  0.69203  0.51583  1.0000
  H   H21       1.0  0.29746  0.58056  0.46060  1.0000
  H   H22       1.0  0.57978  0.27386  0.48790  1.0000
  H   H23       1.0  0.72347  0.30410  0.50658  1.0000
  H   H24       1.0  0.69539  0.41258  0.54423  1.0000
  C   C1        1.0  0.31692  0.62339  0.97212  1.0000
  C   C2        1.0  0.38289  0.70101  0.00081  1.0000
  C   C3        1.0  0.30388  0.68486  0.00406  1.0000
  C   C4        1.0  0.68995  0.38282  0.03537  1.0000
  C   C5        1.0  0.62218  0.30620  0.00297  1.0000
  C   C6        1.0  0.70078  0.31996  0.00345  1.0000
  C   C7        1.0  0.39975  0.63844  0.98661  1.0000
  C   C8        1.0  0.36954  0.76556  0.02416  1.0000
  C   C9        1.0  0.23585  0.60442  0.97588  1.0000
  C   C10       1.0  0.60718  0.37015  0.01569  1.0000
  C   C11       1.0  0.63384  0.24083  0.97540  1.0000
  C   C12       1.0  0.77073  0.39877  0.03490  1.0000
  C   C13       1.0  0.36597  0.65444  0.98467  1.0000
  C   C14       1.0  0.35181  0.71670  0.00859  1.0000
  C   C15       1.0  0.28588  0.63814  0.98274  1.0000
  C   C16       1.0  0.64047  0.35292  0.02081  1.0000
  C   C17       1.0  0.65231  0.28934  0.99527  1.0000
  C   C18       1.0  0.72016  0.36672  0.02614  1.0000
  C   C19       1.0  0.31120  0.61696  0.47270  1.0000
  C   C20       1.0  0.37860  0.69387  0.49754  1.0000
  C   C21       1.0  0.30071  0.68030  0.50290  1.0000
  C   C22       1.0  0.68332  0.37654  0.53203  1.0000
  C   C23       1.0  0.61752  0.29890  0.49897  1.0000
  C   C24       1.0  0.69821  0.31488  0.51133  1.0000
  C   C25       1.0  0.39325  0.62945  0.48638  1.0000
  C   C26       1.0  0.36764  0.75993  0.52288  1.0000
  C   C27       1.0  0.23113  0.60080  0.47846  1.0000
  C   C28       1.0  0.59984  0.36117  0.51157  1.0000
  C   C29       1.0  0.63362  0.23446  0.48737  1.0000
  C   C30       1.0  0.76528  0.39563  0.53556  1.0000
  C   C31       1.0  0.36031  0.64689  0.48259  1.0000
  C   C32       1.0  0.34884  0.71098  0.50638  1.0000
  C   C33       1.0  0.28131  0.63325  0.48310  1.0000
  C   C34       1.0  0.63401  0.34534  0.51545  1.0000
  C   C35       1.0  0.64977  0.28315  0.49954  1.0000
  C   C36       1.0  0.71529  0.36182  0.52783  1.0000
  N   N1        1.0  0.38545  0.59611  0.96782  1.0000
  N   N2        1.0  0.40742  0.79847  0.97929  1.0000
  N   N3        1.0  0.20902  0.61364  0.01732  1.0000
  N   N4        1.0  0.62221  0.41246  0.03677  1.0000
  N   N5        1.0  0.59307  0.20882  0.00037  1.0000
  N   N6        1.0  0.79639  0.38809  0.99266  1.0000
  N   N7        1.0  0.51325  0.52767  0.99848  1.0000
  N   N8        1.0  0.47670  0.99103  0.97983  1.0000
  N   N9        1.0  0.01608  0.48989  0.00682  1.0000
  N   N10       1.0  0.49644  0.48283  0.01044  1.0000
  N   N11       1.0  0.52200  0.01641  0.99273  1.0000
  N   N12       1.0  0.98989  0.50854  0.00275  1.0000
  N   N13       1.0  0.37834  0.58671  0.47027  1.0000
  N   N14       1.0  0.40528  0.79259  0.47591  1.0000
  N   N15       1.0  0.20469  0.61179  0.51510  1.0000
  N   N16       1.0  0.61439  0.40297  0.53619  1.0000
  N   N17       1.0  0.59077  0.20286  0.49323  1.0000
  N   N18       1.0  0.79272  0.38597  0.49923  1.0000
  N   N19       1.0  0.50443  0.51617  0.50181  1.0000
  N   N20       1.0  0.47678  0.98491  0.48417  1.0000
  N   N21       1.0  0.01093  0.49139  0.50377  1.0000
  N   N22       1.0  0.48757  0.47130  0.51433  1.0000
  N   N23       1.0  0.52165  0.01039  0.49161  1.0000
  N   N24       1.0  0.98533  0.50986  0.50514  1.0000
  C  Sn1       1.0  0.46670  0.61151  0.89204  1.0000
  C   C37       1.0  0.42099  0.58697  0.91641  1.0000
  C  Sn2       1.0  0.31030  0.59274  0.00062  1.0000
  C  Sn3       1.0  0.34165  0.56793  0.06187  1.0000
  C   C38       1.0  0.38733  0.59246  0.03752  1.0000
  C  Sn4       1.0  0.49804  0.58670  0.95329  1.0000
  O  Te1       1.0  0.48095  0.66032  0.80751  1.0000
  O  Te2       1.0  0.26443  0.56897  0.02340  1.0000
  O  Te3       1.0  0.32736  0.51908  0.14645  1.0000
  O  Te4       1.0  0.54389  0.61046  0.93053  1.0000
  Mg  Mg1       1.0  0.26147  0.50245  0.14650  1.0000
  Mg  Mg2       1.0  0.54689  0.67698  0.80755  1.0000
  C  Sn5       1.0  0.38944  0.87884  0.92017  1.0000
  C   C39       1.0  0.41341  0.85328  0.92753  1.0000
  C  Sn6       1.0  0.46524  0.87203  0.98240  1.0000
  C  Sn7       1.0  0.39803  0.97184  0.03106  1.0000
  C   C40       1.0  0.37406  0.99737  0.02372  1.0000
  C  Sn8       1.0  0.41791  0.92406  0.96882  1.0000
  O  Te5       1.0  0.33758  0.85940  0.86492  1.0000
  O  Te6       1.0  0.48836  0.84583  0.98862  1.0000
  O  Te7       1.0  0.44992  0.99127  0.08633  1.0000
  O  Te8       1.0  0.89622  0.95024  0.96263  1.0000
  Mg  Mg3       1.0  0.46427  0.94197  0.07278  1.0000
  Mg  Mg4       1.0  0.32321  0.90871  0.87859  1.0000
  C  Sn9       1.0  0.10986  0.50346  0.07143  1.0000
  C   C41       1.0  0.07497  0.51669  0.06258  1.0000
  C  Sn10      1.0  0.08204  0.56476  0.01337  1.0000
  C  Sn11      1.0  0.22053  0.54576  0.97203  1.0000
  C   C42       1.0  0.25539  0.53252  0.98086  1.0000
  C  Sn12      1.0  0.15268  0.53905  0.03009  1.0000
  O  Te9       1.0  0.10204  0.45519  0.12093  1.0000
  O  Te10      1.0  0.04665  0.57711  0.00553  1.0000
  O  Te11      1.0  0.22834  0.59406  0.92251  1.0000
  O  Te12      1.0  0.18804  0.52669  0.03791  1.0000
  Mg  Mg5       1.0  0.16954  0.59303  0.93107  1.0000
  Mg  Mg6       1.0  0.16085  0.45620  0.11224  1.0000
  C  Sn13      1.0  0.62258  0.34622  0.98744  1.0000
  C   C43       1.0  0.66997  0.37001  0.97758  1.0000
  C  Sn14      1.0  0.60244  0.47129  0.00297  1.0000
  C  Sn15      1.0  0.58284  0.49469  0.03910  1.0000
  C   C44       1.0  0.53549  0.47090  0.04898  1.0000
  C  Sn16      1.0  0.50731  0.42420  0.02357  1.0000
  O  Te13      1.0  0.59510  0.29954  0.96162  1.0000
  O  Te14      1.0  0.74538  0.43976  0.99241  1.0000
  O  Te15      1.0  0.61037  0.54140  0.06492  1.0000
  O  Te16      1.0  0.46007  0.40114  0.03415  1.0000
  Mg  Mg7       1.0  0.67286  0.55782  0.03750  1.0000
  Mg  Mg8       1.0  0.53257  0.28308  0.98918  1.0000
  C  Sn17      1.0  0.50368  0.09750  0.92734  1.0000
  C   C45       1.0  0.52715  0.07150  0.93440  1.0000
  C  Sn18      1.0  0.57896  0.08978  0.98924  1.0000
  C  Sn19      1.0  0.51223  0.18956  0.03817  1.0000
  C   C46       1.0  0.48876  0.21552  0.03114  1.0000
  C  Sn20      1.0  0.53264  0.14269  0.97627  1.0000
  O  Te17      1.0  0.45184  0.07853  0.87212  1.0000
  O  Te18      1.0  0.60158  0.06313  0.99515  1.0000
  O  Te19      1.0  0.56411  0.20851  0.09341  1.0000
  O  Te20      1.0  0.51002  0.16931  0.97039  1.0000
  Mg  Mg9       1.0  0.57767  0.15872  0.07940  1.0000
  Mg  Mg10      1.0  0.43826  0.12833  0.88626  1.0000
  C  Sn21      1.0  0.81144  0.54474  0.05268  1.0000
  C   C47       1.0  0.84494  0.53086  0.05458  1.0000
  C  Sn22      1.0  0.82813  0.48809  0.00527  1.0000
  C  Sn23      1.0  0.87244  0.40400  0.95285  1.0000
  C   C48       1.0  0.83896  0.41788  0.95093  1.0000
  C  Sn24      1.0  0.76006  0.51523  0.00025  1.0000
  O  Te21      1.0  0.82907  0.58765  0.10249  1.0000
  O  Te22      1.0  0.86234  0.47497  0.00830  1.0000
  O  Te23      1.0  0.85482  0.36107  0.90302  1.0000
  O  Te24      1.0  0.82157  0.47378  0.99721  1.0000
  Mg  Mg11      1.0  0.91589  0.35863  0.92876  1.0000
  Mg  Mg12      1.0  0.76796  0.59012  0.07662  1.0000
  C  Sn25      1.0  0.48985  0.58863  0.51159  1.0000
  C   C49       1.0  0.48079  0.54047  0.54784  1.0000
  C  Sn26      1.0  0.43314  0.50612  0.53284  1.0000
  C  Sn27      1.0  0.39370  0.52020  0.48039  1.0000
  C   C50       1.0  0.40276  0.56834  0.44414  1.0000
  C  Sn28      1.0  0.45041  0.60271  0.45914  1.0000
  O  Te25      1.0  0.53778  0.62236  0.52744  1.0000
  O  Te26      1.0  0.42500  0.45818  0.56985  1.0000
  O  Te27      1.0  0.34574  0.48642  0.46457  1.0000
  O  Te28      1.0  0.45856  0.65062  0.42213  1.0000
  Mg  Mg13      1.0  0.35323  0.42553  0.52923  1.0000
  Mg  Mg14      1.0  0.53030  0.68331  0.46261  1.0000
  C  Sn29      1.0  0.38858  0.87300  0.42719  1.0000
  C   C51       1.0  0.41131  0.84750  0.42577  1.0000
  C  Sn30      1.0  0.46284  0.86613  0.47335  1.0000
  C  Sn31      1.0  0.49228  0.91118  0.52352  1.0000
  C   C52       1.0  0.46956  0.93665  0.52495  1.0000
  C  Sn32      1.0  0.41802  0.91805  0.47736  1.0000
  O  Te29      1.0  0.33700  0.85368  0.37914  1.0000
  O  Te30      1.0  0.48471  0.83998  0.47085  1.0000
  O  Te31      1.0  0.54390  0.93049  0.57158  1.0000
  O  Te32      1.0  0.39615  0.94416  0.47987  1.0000
  Mg  Mg15      1.0  0.55640  0.88133  0.54741  1.0000
  Mg  Mg16      1.0  0.32448  0.90285  0.40344  1.0000
  C  Sn33      1.0  0.08497  0.58374  0.46437  1.0000
  C   C53       1.0  0.05819  0.53582  0.45520  1.0000
  C  Sn34      1.0  0.08272  0.50706  0.49398  1.0000
  C  Sn35      1.0  0.13511  0.52660  0.54306  1.0000
  C   C54       1.0  0.16186  0.57450  0.55224  1.0000
  C  Sn36      1.0  0.13736  0.60329  0.51346  1.0000
  O  Te33      1.0  0.05967  0.61183  0.42506  1.0000
  O  Te34      1.0  0.05515  0.45925  0.48383  1.0000
  O  Te35      1.0  0.16039  0.49847  0.58238  1.0000
  O  Te36      1.0  0.16490  0.65107  0.52362  1.0000
  Mg  Mg17      1.0  0.10649  0.43538  0.54992  1.0000
  Mg  Mg18      1.0  0.11361  0.67496  0.45766  1.0000
  C  Sn37      1.0  0.51881  0.39021  0.48714  1.0000
  C   C55       1.0  0.56651  0.41437  0.48022  1.0000
  C  Sn38      1.0  0.59446  0.46076  0.50943  1.0000
  C  Sn39      1.0  0.57434  0.48347  0.54645  1.0000
  C   C56       1.0  0.52667  0.45931  0.55339  1.0000
  C  Sn40      1.0  0.49868  0.41292  0.52416  1.0000
  O  Te37      1.0  0.49153  0.34386  0.45752  1.0000
  O  Te38      1.0  0.64206  0.48419  0.50176  1.0000
  O  Te39      1.0  0.60166  0.52986  0.57607  1.0000
  O  Te40      1.0  0.45112  0.38949  0.53185  1.0000
  Mg  Mg19      1.0  0.66475  0.54701  0.55159  1.0000
  Mg  Mg20      1.0  0.42840  0.32667  0.48214  1.0000
  C  Sn41      1.0  0.52619  0.11173  0.55151  1.0000
  C   C57       1.0  0.57216  0.14610  0.54244  1.0000
  C  Sn42      1.0  0.59993  0.13722  0.48699  1.0000
  C  Sn43      1.0  0.58135  0.09308  0.43949  1.0000
  C   C58       1.0  0.53540  0.05875  0.44854  1.0000
  C  Sn44      1.0  0.50761  0.06759  0.50401  1.0000
  O  Te41      1.0  0.49907  0.12138  0.60730  1.0000
  O  Te42      1.0  0.64580  0.17213  0.47906  1.0000
  O  Te43      1.0  0.60852  0.08346  0.38368  1.0000
  O  Te44      1.0  0.46177  0.03272  0.51192  1.0000
  Mg  Mg21      1.0  0.66896  0.14226  0.39476  1.0000
  Mg  Mg22      1.0  0.43857  0.06256  0.59609  1.0000
  C  Sn45      1.0  0.90311  0.48858  0.56753  1.0000
  C   C59       1.0  0.93615  0.47645  0.55692  1.0000
  C  Sn46      1.0  0.91895  0.43522  0.49581  1.0000
  C  Sn47      1.0  0.86764  0.40551  0.44411  1.0000
  C   C60       1.0  0.83463  0.41764  0.45470  1.0000
  C  Sn48      1.0  0.85181  0.45887  0.51583  1.0000
  O  Te45      1.0  0.92113  0.52997  0.62901  1.0000
  O  Te46      1.0  0.95269  0.42383  0.48644  1.0000
  O  Te47      1.0  0.84964  0.36410  0.38261  1.0000
  O  Te48      1.0  0.81809  0.47027  0.52518  1.0000
  Mg  Mg23      1.0  0.91015  0.36373  0.39384  1.0000
  Mg  Mg24      1.0  0.86058  0.53037  0.61766  1.0000
