data_image0
_chemical_formula_structural       H24C36N24C2Sn2C2HTe2HMgC2Sn2C2HTe2HMgC2Sn2C2HTe2HMgC2Sn2C2HTe2HMgC2Sn2C2HTe2HMgC2Sn2C2HTe2HMgC2Sn2C2HTe2HMgC2Sn2C2HTe2HMgC2Sn2C2HTe2HMgC2Sn2C2HTe2HMgC2Sn2C2HTe2HMgC2Sn2C2HTe2HMg
_chemical_formula_sum              "H48 C84 N24 Sn24 Te24 Mg12"
_cell_length_a       33.3432
_cell_length_b       33.2568
_cell_length_c       8.09023
_cell_angle_alpha    65.0713
_cell_angle_beta     120.43
_cell_angle_gamma    119.991

_symmetry_space_group_name_H-M    'P1'
_space_group_IT_number       1

loop_
  _space_group_symop_operation_xyz
  'x, y, z'

loop_
  _atom_site_type_symbol
  _atom_site_label
  _atom_site_symmetry_multiplicity
  _atom_site_fract_x
  _atom_site_fract_y
  _atom_site_fract_z
  _atom_site_occupancy
  H   H1        1.0  0.43825  0.66436  0.01126  1.0000
  H   H2        1.0  0.34911  0.77213  0.07637  1.0000
  H   H3        1.0  0.22304  0.57133  0.93374  1.0000
  H   H4        1.0  0.56826  0.34504  0.98618  1.0000
  H   H5        1.0  0.65695  0.23382  0.93837  1.0000
  H   H6        1.0  0.78509  0.43195  0.07920  1.0000
  H   H7        1.0  0.42033  0.72605  0.00723  1.0000
  H   H8        1.0  0.27967  0.69545  0.01685  1.0000
  H   H9        1.0  0.30431  0.58736  0.95854  1.0000
  H   H10       1.0  0.58435  0.28206  0.99450  1.0000
  H   H11       1.0  0.72438  0.30828  0.99223  1.0000
  H   H12       1.0  0.70363  0.41898  0.04999  1.0000
  H   H13       1.0  0.43198  0.65477  0.51100  1.0000
  H   H14       1.0  0.34787  0.76689  0.57694  1.0000
  H   H15       1.0  0.21790  0.56678  0.44256  1.0000
  H   H16       1.0  0.56111  0.33558  0.48185  1.0000
  H   H17       1.0  0.66051  0.22702  0.47501  1.0000
  H   H18       1.0  0.77720  0.42925  0.57166  1.0000
  H   H19       1.0  0.41626  0.71794  0.50329  1.0000
  H   H20       1.0  0.27741  0.69203  0.51583  1.0000
  H   H21       1.0  0.29746  0.58056  0.46060  1.0000
  H   H22       1.0  0.57978  0.27386  0.48790  1.0000
  H   H23       1.0  0.72347  0.30410  0.50658  1.0000
  H   H24       1.0  0.69539  0.41258  0.54423  1.0000
  C   C1        1.0  0.31692  0.62339  0.97212  1.0000
  C   C2        1.0  0.38289  0.70101  0.00081  1.0000
  C   C3        1.0  0.30388  0.68486  0.00406  1.0000
  C   C4        1.0  0.68995  0.38282  0.03537  1.0000
  C   C5        1.0  0.62218  0.30620  0.00297  1.0000
  C   C6        1.0  0.70078  0.31996  0.00345  1.0000
  C   C7        1.0  0.39975  0.63844  0.98661  1.0000
  C   C8        1.0  0.36954  0.76556  0.02416  1.0000
  C   C9        1.0  0.23585  0.60442  0.97588  1.0000
  C   C10       1.0  0.60718  0.37015  0.01569  1.0000
  C   C11       1.0  0.63384  0.24083  0.97540  1.0000
  C   C12       1.0  0.77073  0.39877  0.03490  1.0000
  C   C13       1.0  0.36597  0.65444  0.98467  1.0000
  C   C14       1.0  0.35181  0.71670  0.00859  1.0000
  C   C15       1.0  0.28588  0.63814  0.98274  1.0000
  C   C16       1.0  0.64047  0.35292  0.02081  1.0000
  C   C17       1.0  0.65231  0.28934  0.99527  1.0000
  C   C18       1.0  0.72016  0.36672  0.02614  1.0000
  C   C19       1.0  0.31120  0.61696  0.47270  1.0000
  C   C20       1.0  0.37860  0.69387  0.49754  1.0000
  C   C21       1.0  0.30071  0.68030  0.50290  1.0000
  C   C22       1.0  0.68332  0.37654  0.53203  1.0000
  C   C23       1.0  0.61752  0.29890  0.49897  1.0000
  C   C24       1.0  0.69821  0.31488  0.51133  1.0000
  C   C25       1.0  0.39325  0.62945  0.48638  1.0000
  C   C26       1.0  0.36764  0.75993  0.52288  1.0000
  C   C27       1.0  0.23113  0.60080  0.47846  1.0000
  C   C28       1.0  0.59984  0.36117  0.51157  1.0000
  C   C29       1.0  0.63362  0.23446  0.48737  1.0000
  C   C30       1.0  0.76528  0.39563  0.53556  1.0000
  C   C31       1.0  0.36031  0.64689  0.48259  1.0000
  C   C32       1.0  0.34884  0.71098  0.50638  1.0000
  C   C33       1.0  0.28131  0.63325  0.48310  1.0000
  C   C34       1.0  0.63401  0.34534  0.51545  1.0000
  C   C35       1.0  0.64977  0.28315  0.49954  1.0000
  C   C36       1.0  0.71529  0.36182  0.52783  1.0000
  N   N1        1.0  0.38545  0.59611  0.96782  1.0000
  N   N2        1.0  0.40742  0.79847  0.97929  1.0000
  N   N3        1.0  0.20902  0.61364  0.01732  1.0000
  N   N4        1.0  0.62221  0.41246  0.03677  1.0000
  N   N5        1.0  0.59307  0.20882  0.00037  1.0000
  N   N6        1.0  0.79639  0.38809  0.99266  1.0000
  N   N7        1.0  0.51325  0.52767  0.99848  1.0000
  N   N8        1.0  0.47670  0.99103  0.97983  1.0000
  N   N9        1.0  0.01608  0.48989  0.00682  1.0000
  N   N10       1.0  0.49644  0.48283  0.01044  1.0000
  N   N11       1.0  0.52200  0.01641  0.99273  1.0000
  N   N12       1.0  0.98989  0.50854  0.00275  1.0000
  N   N13       1.0  0.37834  0.58671  0.47027  1.0000
  N   N14       1.0  0.40528  0.79259  0.47591  1.0000
  N   N15       1.0  0.20469  0.61179  0.51510  1.0000
  N   N16       1.0  0.61439  0.40297  0.53619  1.0000
  N   N17       1.0  0.59077  0.20286  0.49323  1.0000
  N   N18       1.0  0.79272  0.38597  0.49923  1.0000
  N   N19       1.0  0.50443  0.51617  0.50181  1.0000
  N   N20       1.0  0.47678  0.98491  0.48417  1.0000
  N   N21       1.0  0.01093  0.49139  0.50377  1.0000
  N   N22       1.0  0.48757  0.47130  0.51433  1.0000
  N   N23       1.0  0.52165  0.01039  0.49161  1.0000
  N   N24       1.0  0.98533  0.50986  0.50514  1.0000
  C   C37       1.0  0.49241  0.60334  0.94915  1.0000
  C   C38       1.0  0.48621  0.55555  0.99686  1.0000
  C  Sn1       1.0  0.34730  0.57397  0.02596  1.0000
  C  Sn2       1.0  0.30963  0.58598  0.00678  1.0000
  C   C39       1.0  0.41185  0.57931  0.95887  1.0000
  C   C40       1.0  0.45527  0.61522  0.93013  1.0000
  H   H25       1.0  0.52599  0.63112  0.92680  1.0000
  O  Te1       1.0  0.34172  0.52640  0.07362  1.0000
  O  Te2       1.0  0.26604  0.55054  0.03500  1.0000
  H   H26       1.0  0.46004  0.65221  0.89307  1.0000
  Mg  Mg1       1.0  0.27569  0.49088  0.09786  1.0000
  C   C41       1.0  0.48234  0.88762  0.98250  1.0000
  C   C42       1.0  0.43698  0.85239  0.99483  1.0000
  C  Sn3       1.0  0.40213  0.86431  0.99361  1.0000
  C  Sn4       1.0  0.41301  0.91241  0.97972  1.0000
  C   C43       1.0  0.95991  0.94739  0.96731  1.0000
  C   C44       1.0  0.49308  0.93508  0.96872  1.0000
  H   H27       1.0  0.50910  0.87810  0.98349  1.0000
  O  Te3       1.0  0.26132  0.88325  0.00611  1.0000
  O  Te4       1.0  0.37884  0.92531  0.97811  1.0000
  H   H28       1.0  0.02962  0.96236  0.95905  1.0000
  Mg  Mg2       1.0  0.32246  0.86394  0.99841  1.0000
  C   C45       1.0  0.09388  0.58247  0.01671  1.0000
  C   C46       1.0  0.16226  0.48057  0.99871  1.0000
  C  Sn5       1.0  0.18460  0.45458  0.99823  1.0000
  C  Sn6       1.0  0.13956  0.53104  0.01619  1.0000
  C   C47       1.0  0.16656  0.57839  0.03426  1.0000
  C   C48       1.0  0.14382  0.60407  0.03451  1.0000
  H   H29       1.0  0.07630  0.60234  0.01701  1.0000
  O  Te5       1.0  0.15678  0.40734  0.98004  1.0000
  O  Te6       1.0  0.16282  0.50588  0.01621  1.0000
  H   H30       1.0  0.16498  0.64069  0.04858  1.0000
  Mg  Mg3       1.0  0.20502  0.38782  0.98766  1.0000
  C   C49       1.0  0.51402  0.40718  0.03886  1.0000
  C   C50       1.0  0.52520  0.45439  0.02942  1.0000
  C  Sn7       1.0  0.56978  0.48998  0.01057  1.0000
  C  Sn8       1.0  0.60372  0.47796  0.00096  1.0000
  C   C51       1.0  0.59217  0.43063  0.01038  1.0000
  C   C52       1.0  0.54746  0.39530  0.02932  1.0000
  H   H31       1.0  0.47942  0.37985  0.05339  1.0000
  O  Te7       1.0  0.58038  0.53697  0.00142  1.0000
  O  Te8       1.0  0.74420  0.45824  0.98204  1.0000
  H   H32       1.0  0.53880  0.35875  0.03649  1.0000
  Mg  Mg4       1.0  0.74191  0.51724  0.97569  1.0000
  C   C53       1.0  0.51664  0.12081  0.98218  1.0000
  C   C54       1.0  0.46923  0.20861  0.00008  1.0000
  C  Sn9       1.0  0.50398  0.19612  0.00376  1.0000
  C  Sn10      1.0  0.58572  0.09490  0.98917  1.0000
  C   C55       1.0  0.53732  0.06194  0.97118  1.0000
  C   C56       1.0  0.50285  0.07481  0.96771  1.0000
  H   H33       1.0  0.48995  0.13078  0.97938  1.0000
  O  Te9       1.0  0.55206  0.22974  0.02180  1.0000
  O  Te10      1.0  0.61970  0.08148  0.99240  1.0000
  H   H34       1.0  0.46547  0.04910  0.95372  1.0000
  Mg  Mg5       1.0  0.58510  0.19447  0.01934  1.0000
  C   C57       1.0  0.87496  0.48031  0.99567  1.0000
  C   C58       1.0  0.84703  0.43285  0.98020  1.0000
  C  Sn11      1.0  0.86886  0.40570  0.98446  1.0000
  C  Sn12      1.0  0.82393  0.48113  0.00465  1.0000
  C   C59       1.0  0.85156  0.52862  0.02015  1.0000
  C   C60       1.0  0.82934  0.55547  0.01566  1.0000
  H   H35       1.0  0.85777  0.50108  0.99230  1.0000
  O  Te11      1.0  0.84042  0.35834  0.96876  1.0000
  O  Te12      1.0  0.84669  0.45480  0.00940  1.0000
  H   H36       1.0  0.85098  0.59220  0.02776  1.0000
  Mg  Mg6       1.0  0.88813  0.33703  0.98275  1.0000
  C   C61       1.0  0.41617  0.49952  0.54067  1.0000
  C   C62       1.0  0.45950  0.52275  0.49923  1.0000
  C  Sn13      1.0  0.48039  0.57249  0.45278  1.0000
  C  Sn14      1.0  0.45741  0.59938  0.44790  1.0000
  C   C63       1.0  0.41409  0.57580  0.48972  1.0000
  C   C64       1.0  0.39349  0.52601  0.53596  1.0000
  H   H37       1.0  0.40024  0.46100  0.57656  1.0000
  O  Te13      1.0  0.52369  0.59513  0.41169  1.0000
  O  Te14      1.0  0.47751  0.64913  0.40199  1.0000
  H   H38       1.0  0.35996  0.50804  0.56817  1.0000
  Mg  Mg7       1.0  0.53694  0.66364  0.35690  1.0000
  C   C65       1.0  0.39230  0.86961  0.49249  1.0000
  C   C66       1.0  0.41211  0.84457  0.47065  1.0000
  C  Sn15      1.0  0.45983  0.86675  0.46479  1.0000
  C  Sn16      1.0  0.48817  0.91488  0.48119  1.0000
  C   C67       1.0  0.46804  0.93962  0.50313  1.0000
  C   C68       1.0  0.42024  0.91709  0.50875  1.0000
  H   H39       1.0  0.35533  0.85218  0.49695  1.0000
  O  Te15      1.0  0.47904  0.84121  0.44281  1.0000
  O  Te16      1.0  0.53597  0.93791  0.47586  1.0000
  H   H40       1.0  0.40493  0.93648  0.52580  1.0000
  Mg  Mg8       1.0  0.54593  0.88812  0.44363  1.0000
  C   C69       1.0  0.12512  0.51978  0.50307  1.0000
  C   C70       1.0  0.15172  0.56824  0.50258  1.0000
  C  Sn17      1.0  0.13144  0.59452  0.51398  1.0000
  C  Sn18      1.0  0.08363  0.57176  0.52613  1.0000
  C   C71       1.0  0.05733  0.52326  0.52665  1.0000
  C   C72       1.0  0.07798  0.49731  0.51512  1.0000
  H   H41       1.0  0.14110  0.49969  0.49425  1.0000
  O  Te17      1.0  0.15851  0.64290  0.51325  1.0000
  O  Te18      1.0  0.06249  0.59718  0.53775  1.0000
  H   H42       1.0  0.05738  0.45978  0.51563  1.0000
  Mg  Mg9       1.0  0.11389  0.66236  0.53169  1.0000
  C   C73       1.0  0.59483  0.47812  0.50087  1.0000
  C   C74       1.0  0.58712  0.43034  0.53707  1.0000
  C  Sn19      1.0  0.54272  0.39440  0.55629  1.0000
  C  Sn20      1.0  0.50541  0.40665  0.53882  1.0000
  C   C75       1.0  0.51347  0.45456  0.50245  1.0000
  C   C76       1.0  0.55804  0.49023  0.48354  1.0000
  H   H43       1.0  0.62931  0.50573  0.48612  1.0000
  O  Te19      1.0  0.53562  0.34684  0.59251  1.0000
  O  Te20      1.0  0.46067  0.37145  0.55731  1.0000
  H   H44       1.0  0.56399  0.52723  0.45538  1.0000
  Mg  Mg10      1.0  0.46844  0.31168  0.60634  1.0000
  C   C77       1.0  0.59504  0.10006  0.48043  1.0000
  C   C78       1.0  0.55053  0.06455  0.50034  1.0000
  C  Sn21      1.0  0.51648  0.07618  0.50634  1.0000
  C  Sn22      1.0  0.52729  0.12429  0.49205  1.0000
  C   C79       1.0  0.57191  0.15956  0.47204  1.0000
  C   C80       1.0  0.60572  0.14752  0.46626  1.0000
  H   H45       1.0  0.62120  0.09075  0.47585  1.0000
  O  Te21      1.0  0.47219  0.04026  0.52636  1.0000
  O  Te22      1.0  0.49391  0.13691  0.49757  1.0000
  H   H46       1.0  0.64017  0.17503  0.45072  1.0000
  Mg  Mg11      1.0  0.43852  0.07522  0.52666  1.0000
  C   C81       1.0  0.90744  0.41734  0.49561  1.0000
  C   C82       1.0  0.93257  0.46616  0.48901  1.0000
  C  Sn23      1.0  0.91088  0.49191  0.49529  1.0000
  C  Sn24      1.0  0.86314  0.46824  0.50847  1.0000
  C   C83       1.0  0.83832  0.41939  0.51513  1.0000
  C   C84       1.0  0.86036  0.39397  0.50869  1.0000
  H   H47       1.0  0.92450  0.39767  0.49074  1.0000
  O  Te23      1.0  0.93650  0.54066  0.48847  1.0000
  O  Te24      1.0  0.84061  0.49311  0.51505  1.0000
  H   H48       1.0  0.84090  0.35617  0.51393  1.0000
  Mg  Mg12      1.0  0.89031  0.55911  0.50158  1.0000
