data_image0
_chemical_formula_structural       H18C30N30O18C2Sn2C2HTe2HMgC2Sn2C2HTe2HMgC2Sn2C2HTe2HMgC2Sn2C2HTe2HMgC2Sn2C2HTe2HMgC2Sn2C2HTe2HMgC2Sn2C2HTe2HMgC2Sn2C2HTe2HMgC2Sn2C2HTe2HMgC2Sn2C2HTe2HMgC2Sn2C2HTe2HMgC2Sn2C2HTe2HMgC2Sn2C2HTe2HMgC2Sn2C2HTe2HMgC2Sn2C2HTe2HMgC2Sn2C2HTe2HMgC2Sn2C2HTe2HMgC2Sn2C2HTe2HMgC2Sn2C2HTe2HMgC2Sn2C2HTe2HMg
_chemical_formula_sum              "H58 C110 N30 O18 Sn40 Te40 Mg20"
_cell_length_a       49.592
_cell_length_b       49.7162
_cell_length_c       5.83106
_cell_angle_alpha    89.129
_cell_angle_beta     90.6937
_cell_angle_gamma    120.06

_symmetry_space_group_name_H-M    'P1'
_space_group_IT_number       1

loop_
  _space_group_symop_operation_xyz
  'x, y, z'

loop_
  _atom_site_type_symbol
  _atom_site_label
  _atom_site_symmetry_multiplicity
  _atom_site_fract_x
  _atom_site_fract_y
  _atom_site_fract_z
  _atom_site_occupancy
  H   H1        1.0  0.47902  0.56812  0.48396  1.0000
  H   H2        1.0  0.44509  0.91934  0.52380  1.0000
  H   H3        1.0  0.08687  0.51950  0.47534  1.0000
  H   H4        1.0  0.45716  0.59138  0.51380  1.0000
  H   H5        1.0  0.41258  0.87154  0.53819  1.0000
  H   H6        1.0  0.13403  0.54122  0.44657  1.0000
  H   H7        1.0  0.53916  0.41255  0.50340  1.0000
  H   H8        1.0  0.58706  0.12614  0.52961  1.0000
  H   H9        1.0  0.87358  0.45969  0.46786  1.0000
  H   H10       1.0  0.47291  0.55665  0.98412  1.0000
  H   H11       1.0  0.43515  0.91383  0.03428  1.0000
  H   H12       1.0  0.08632  0.52501  0.97713  1.0000
  H   H13       1.0  0.45573  0.58779  0.96881  1.0000
  H   H14       1.0  0.40990  0.86949  0.98498  1.0000
  H   H15       1.0  0.13207  0.54440  0.97719  1.0000
  H   H16       1.0  0.54040  0.41488  0.00948  1.0000
  H   H17       1.0  0.58863  0.12767  0.97230  1.0000
  H   H18       1.0  0.87494  0.46024  0.02979  1.0000
  C   C1        1.0  0.46252  0.48109  0.37709  1.0000
  C   C2        1.0  0.52436  0.98463  0.60450  1.0000
  C   C3        1.0  0.01576  0.53930  0.60845  1.0000
  C   C4        1.0  0.43445  0.56974  0.52066  1.0000
  C   C5        1.0  0.43162  0.86695  0.50250  1.0000
  C   C6        1.0  0.13573  0.56370  0.48276  1.0000
  C   C7        1.0  0.56237  0.43342  0.52003  1.0000
  C   C8        1.0  0.56590  0.12835  0.50777  1.0000
  C   C9        1.0  0.87145  0.43670  0.47290  1.0000
  C   C10       1.0  0.66986  0.36027  0.63112  1.0000
  C   C11       1.0  0.64092  0.31746  0.51399  1.0000
  C   C12       1.0  0.68607  0.33945  0.37328  1.0000
  C   C13       1.0  0.32578  0.63909  0.34395  1.0000
  C   C14       1.0  0.36190  0.68160  0.52246  1.0000
  C   C15       1.0  0.31515  0.67167  0.53201  1.0000
  C   C16       1.0  0.46008  0.47556  0.11748  1.0000
  C   C17       1.0  0.51835  0.98171  0.87605  1.0000
  C   C18       1.0  0.01900  0.53779  0.87668  1.0000
  C   C19       1.0  0.43243  0.56758  0.99732  1.0000
  C   C20       1.0  0.43076  0.86686  0.98549  1.0000
  C   C21       1.0  0.13515  0.56770  0.99926  1.0000
  C   C22       1.0  0.56368  0.43540  0.98425  1.0000
  C   C23       1.0  0.56698  0.12885  0.99814  1.0000
  C   C24       1.0  0.87227  0.43695  0.02813  1.0000
  C   C25       1.0  0.67278  0.35420  0.87048  1.0000
  C   C26       1.0  0.64586  0.30932  0.02356  1.0000
  C   C27       1.0  0.68970  0.33451  0.14319  1.0000
  C   C28       1.0  0.31719  0.62402  0.12230  1.0000
  C   C29       1.0  0.35634  0.68767  0.98493  1.0000
  C   C30       1.0  0.30244  0.65920  0.02534  1.0000
  N   N1        1.0  0.56552  0.46211  0.48972  1.0000
  N   N2        1.0  0.53757  0.10387  0.48771  1.0000
  N   N3        1.0  0.89675  0.43332  0.51194  1.0000
  N   N4        1.0  0.46176  0.54475  0.51633  1.0000
  N   N5        1.0  0.46582  0.91937  0.48570  1.0000
  N   N6        1.0  0.08276  0.53758  0.52014  1.0000
  N   N7        1.0  0.43481  0.54269  0.52933  1.0000
  N   N8        1.0  0.46082  0.89147  0.46865  1.0000
  N   N9        1.0  0.10872  0.56359  0.52412  1.0000
  N   N10       1.0  0.63810  0.34169  0.53853  1.0000
  N   N11       1.0  0.66142  0.31040  0.48484  1.0000
  N   N12       1.0  0.69266  0.36541  0.48133  1.0000
  N   N13       1.0  0.35501  0.65565  0.42729  1.0000
  N   N14       1.0  0.34414  0.69559  0.55621  1.0000
  N   N15       1.0  0.30346  0.64474  0.44006  1.0000
  N   N16       1.0  0.56763  0.46459  0.99631  1.0000
  N   N17       1.0  0.53909  0.10395  0.00638  1.0000
  N   N18       1.0  0.89759  0.43348  0.99710  1.0000
  N   N19       1.0  0.45280  0.53539  0.02478  1.0000
  N   N20       1.0  0.45770  0.91910  0.98494  1.0000
  N   N21       1.0  0.08257  0.54318  0.02690  1.0000
  N   N22       1.0  0.42876  0.53878  0.03245  1.0000
  N   N23       1.0  0.45848  0.89362  0.96896  1.0000
  N   N24       1.0  0.10856  0.56881  0.03699  1.0000
  N   N25       1.0  0.64196  0.33180  0.97248  1.0000
  N   N26       1.0  0.66790  0.30319  0.05255  1.0000
  N   N27       1.0  0.69737  0.35740  0.98244  1.0000
  N   N28       1.0  0.37779  0.68586  0.93120  1.0000
  N   N29       1.0  0.32843  0.68429  0.03112  1.0000
  N   N30       1.0  0.30006  0.62657  0.97431  1.0000
  O   O1        1.0  0.66303  0.41171  0.49357  1.0000
  O   O2        1.0  0.58863  0.25023  0.51040  1.0000
  O   O3        1.0  0.74815  0.34015  0.48832  1.0000
  O   O4        1.0  0.33057  0.58559  0.51331  1.0000
  O   O5        1.0  0.40966  0.74583  0.51722  1.0000
  O   O6        1.0  0.25659  0.66776  0.49787  1.0000
  O   O7        1.0  0.44314  0.48312  0.50727  1.0000
  O   O8        1.0  0.53658  0.97220  0.50578  1.0000
  O   O9        1.0  0.02935  0.56487  0.49950  1.0000
  O   O10       1.0  0.65948  0.40690  0.01095  1.0000
  O   O11       1.0  0.58765  0.25089  0.99705  1.0000
  O   O12       1.0  0.74985  0.33855  0.01475  1.0000
  O   O13       1.0  0.33094  0.58611  0.98272  1.0000
  O   O14       1.0  0.41102  0.74732  0.98073  1.0000
  O   O15       1.0  0.25859  0.66678  0.98730  1.0000
  O   O16       1.0  0.43482  0.46243  0.00742  1.0000
  O   O17       1.0  0.51729  0.95973  0.00074  1.0000
  O   O18       1.0  0.03958  0.55947  0.99182  1.0000
  C   C31       1.0  0.54550  0.50379  0.37776  1.0000
  C   C32       1.0  0.54449  0.47528  0.40052  1.0000
  C  Sn1       1.0  0.51588  0.44765  0.41271  1.0000
  C  Sn2       1.0  0.48780  0.44865  0.40180  1.0000
  C   C33       1.0  0.48906  0.47729  0.37886  1.0000
  C   C34       1.0  0.51781  0.50480  0.36690  1.0000
  H   H19       1.0  0.56774  0.52507  0.36838  1.0000
  O  Te1       1.0  0.51529  0.41936  0.43553  1.0000
  O  Te2       1.0  0.45889  0.42139  0.41350  1.0000
  H   H20       1.0  0.51859  0.52687  0.34913  1.0000
  Mg  Mg1       1.0  0.47018  0.38852  0.44436  1.0000
  C   C35       1.0  0.49330  0.02227  0.49190  1.0000
  C   C36       1.0  0.51466  0.01176  0.50536  1.0000
  C  Sn3       1.0  0.54657  0.03299  0.51926  1.0000
  C  Sn4       1.0  0.55724  0.06533  0.51973  1.0000
  C   C37       1.0  0.53568  0.07561  0.50637  1.0000
  C   C38       1.0  0.50379  0.05417  0.49244  1.0000
  H   H21       1.0  0.46862  0.00568  0.48125  1.0000
  O  Te3       1.0  0.56760  0.02209  0.53251  1.0000
  O  Te4       1.0  0.58901  0.08705  0.53355  1.0000
  H   H22       1.0  0.48726  0.06231  0.48218  1.0000
  Mg  Mg2       1.0  0.60858  0.06078  0.54850  1.0000
  C   C39       1.0  0.92925  0.49248  0.61889  1.0000
  C   C40       1.0  0.93902  0.47756  0.46776  1.0000
  C  Sn5       1.0  0.95004  0.45837  0.55217  1.0000
  C  Sn6       1.0  0.95125  0.45408  0.79241  1.0000
  C   C41       1.0  0.94139  0.46910  0.94217  1.0000
  C   C42       1.0  0.93042  0.48826  0.85586  1.0000
  H   H23       1.0  0.92074  0.50729  0.55213  1.0000
  O  Te5       1.0  0.95972  0.44364  0.39878  1.0000
  O  Te6       1.0  0.96214  0.43502  0.88140  1.0000
  H   H24       1.0  0.92284  0.49979  0.97291  1.0000
  Mg  Mg3       1.0  0.97274  0.41996  0.60318  1.0000
  C   C43       1.0  0.95334  0.51189  0.50629  1.0000
  C   C44       1.0  0.98145  0.51176  0.51491  1.0000
  C  Sn7       1.0  0.98143  0.48368  0.53006  1.0000
  C  Sn8       1.0  0.95270  0.45523  0.53662  1.0000
  C   C45       1.0  0.92470  0.45560  0.52774  1.0000
  C   C46       1.0  0.92499  0.48384  0.51266  1.0000
  H   H25       1.0  0.95357  0.53373  0.49450  1.0000
  O  Te7       1.0  0.00973  0.48397  0.53859  1.0000
  O  Te8       1.0  0.95200  0.42683  0.55166  1.0000
  H   H26       1.0  0.90322  0.48393  0.50585  1.0000
  Mg  Mg4       1.0  0.99669  0.43928  0.55869  1.0000
  C   C47       1.0  0.64302  0.45102  0.60592  1.0000
  C   C48       1.0  0.64085  0.42208  0.63723  1.0000
  C  Sn9       1.0  0.61201  0.39481  0.62017  1.0000
  C  Sn10      1.0  0.58487  0.39662  0.57075  1.0000
  C   C49       1.0  0.58729  0.42568  0.53956  1.0000
  C   C50       1.0  0.61627  0.45283  0.55709  1.0000
  H   H27       1.0  0.66544  0.47202  0.61936  1.0000
  O  Te9       1.0  0.61026  0.36608  0.65203  1.0000
  O  Te10      1.0  0.55575  0.36973  0.55266  1.0000
  H   H28       1.0  0.61794  0.47523  0.53269  1.0000
  Mg  Mg5       1.0  0.56530  0.33602  0.61029  1.0000
  C   C51       1.0  0.61141  0.20970  0.53890  1.0000
  C   C52       1.0  0.59056  0.22065  0.50929  1.0000
  C  Sn11      1.0  0.55861  0.19977  0.48962  1.0000
  C  Sn12      1.0  0.54741  0.16734  0.49993  1.0000
  C   C53       1.0  0.56845  0.15661  0.52976  1.0000
  C   C54       1.0  0.60037  0.17771  0.54917  1.0000
  H   H29       1.0  0.63610  0.22602  0.55405  1.0000
  O  Te11      1.0  0.53811  0.21112  0.46003  1.0000
  O  Te12      1.0  0.51560  0.14595  0.48083  1.0000
  H   H30       1.0  0.61651  0.16921  0.57225  1.0000
  Mg  Mg6       1.0  0.49685  0.17278  0.44245  1.0000
  C   C55       1.0  0.80794  0.41572  0.49881  1.0000
  C   C56       1.0  0.83463  0.41312  0.52150  1.0000
  C  Sn13      1.0  0.83208  0.38385  0.53586  1.0000
  C  Sn14      1.0  0.80222  0.35673  0.52723  1.0000
  C   C57       1.0  0.77566  0.35958  0.50435  1.0000
  C   C58       1.0  0.77848  0.38898  0.49021  1.0000
  H   H31       1.0  0.81012  0.43846  0.48774  1.0000
  O  Te13      1.0  0.85898  0.38167  0.55856  1.0000
  O  Te14      1.0  0.79900  0.32719  0.54113  1.0000
  H   H32       1.0  0.75781  0.39098  0.47250  1.0000
  Mg  Mg7       1.0  0.84257  0.33624  0.57089  1.0000
  C   C59       1.0  0.40848  0.60793  0.48872  1.0000
  C   C60       1.0  0.40848  0.57982  0.49062  1.0000
  C  Sn15      1.0  0.38044  0.55166  0.47556  1.0000
  C  Sn16      1.0  0.35191  0.55171  0.45823  1.0000
  C   C61       1.0  0.35215  0.57996  0.45630  1.0000
  C   C62       1.0  0.38035  0.60800  0.47153  1.0000
  H   H33       1.0  0.43029  0.62963  0.50038  1.0000
  O  Te15      1.0  0.38087  0.52378  0.47779  1.0000
  O  Te16      1.0  0.32355  0.52390  0.44286  1.0000
  H   H34       1.0  0.38034  0.62976  0.46991  1.0000
  Mg  Mg8       1.0  0.33619  0.49191  0.45285  1.0000
  C   C63       1.0  0.38987  0.80254  0.47211  1.0000
  C   C64       1.0  0.41840  0.82990  0.50087  1.0000
  C  Sn17      1.0  0.44622  0.82922  0.49837  1.0000
  C  Sn18      1.0  0.44539  0.80058  0.46639  1.0000
  C   C65       1.0  0.41673  0.77334  0.43761  1.0000
  C   C66       1.0  0.38904  0.77429  0.44047  1.0000
  H   H35       1.0  0.36844  0.80328  0.47419  1.0000
  O  Te17      1.0  0.47451  0.85677  0.52744  1.0000
  O  Te18      1.0  0.47284  0.79924  0.46309  1.0000
  H   H36       1.0  0.36696  0.75310  0.41805  1.0000
  Mg  Mg9       1.0  0.50564  0.84303  0.51010  1.0000
  C   C67       1.0  0.19983  0.58827  0.61788  1.0000
  C   C68       1.0  0.17146  0.58777  0.59912  1.0000
  C  Sn19      1.0  0.17093  0.61553  0.57860  1.0000
  C  Sn20      1.0  0.19936  0.64430  0.57682  1.0000
  C   C69       1.0  0.22762  0.64455  0.59552  1.0000
  C   C70       1.0  0.22789  0.61663  0.61605  1.0000
  H   H37       1.0  0.20004  0.56667  0.63364  1.0000
  O  Te19      1.0  0.14238  0.61461  0.56011  1.0000
  O  Te20      1.0  0.19950  0.67239  0.55643  1.0000
  H   H38       1.0  0.24986  0.61703  0.63042  1.0000
  Mg  Mg10      1.0  0.15465  0.65908  0.53604  1.0000
  C   C71       1.0  0.38376  0.77797  0.39477  1.0000
  C   C72       1.0  0.40842  0.78440  0.54472  1.0000
  C  Sn21      1.0  0.43823  0.79450  0.45925  1.0000
  C  Sn22      1.0  0.44337  0.79821  0.21913  1.0000
  C   C73       1.0  0.41855  0.79173  0.07056  1.0000
  C   C74       1.0  0.38882  0.78163  0.15792  1.0000
  H   H39       1.0  0.36076  0.77017  0.46235  1.0000
  O  Te21      1.0  0.46260  0.80082  0.61146  1.0000
  O  Te22      1.0  0.47293  0.80828  0.12910  1.0000
  H   H40       1.0  0.36973  0.77667  0.04179  1.0000
  Mg  Mg11      1.0  0.49869  0.81394  0.40592  1.0000
  C   C75       1.0  0.52849  0.50770  0.12146  1.0000
  C   C76       1.0  0.49674  0.48652  0.09290  1.0000
  C  Sn23      1.0  0.48613  0.45472  0.08008  1.0000
  C  Sn24      1.0  0.50776  0.44398  0.09626  1.0000
  C   C77       1.0  0.53947  0.46536  0.12498  1.0000
  C   C78       1.0  0.54983  0.49713  0.13752  1.0000
  H   H41       1.0  0.53651  0.53229  0.13129  1.0000
  O  Te23      1.0  0.45434  0.43388  0.05145  1.0000
  O  Te24      1.0  0.49779  0.41232  0.08407  1.0000
  H   H42       1.0  0.57441  0.51352  0.15978  1.0000
  Mg  Mg12      1.0  0.45212  0.39299  0.04428  1.0000
  C   C79       1.0  0.55611  0.04305  0.94136  1.0000
  C   C80       1.0  0.52752  0.01828  0.00779  1.0000
  C  Sn25      1.0  0.50007  0.01959  0.01801  1.0000
  C  Sn26      1.0  0.50133  0.04627  0.96050  1.0000
  C   C81       1.0  0.52935  0.07235  0.89409  1.0000
  C   C82       1.0  0.55668  0.07078  0.88452  1.0000
  H   H43       1.0  0.57726  0.04184  0.93383  1.0000
  O  Te25      1.0  0.97457  0.99319  0.08481  1.0000
  O  Te26      1.0  0.47423  0.04822  0.96916  1.0000
  H   H44       1.0  0.57826  0.09107  0.83293  1.0000
  Mg  Mg13      1.0  0.44157  0.00741  0.07031  1.0000
  C   C83       1.0  0.93799  0.49933  0.95481  1.0000
  C   C84       1.0  0.92751  0.46766  0.93081  1.0000
  C  Sn27      1.0  0.94876  0.45699  0.93047  1.0000
  C  Sn28      1.0  0.98107  0.47846  0.95471  1.0000
  C   C85       1.0  0.99131  0.51009  0.97878  1.0000
  C   C86       1.0  0.96985  0.52052  0.97881  1.0000
  H   H45       1.0  0.92138  0.50740  0.95497  1.0000
  O  Te27      1.0  0.93790  0.42528  0.90623  1.0000
  O  Te28      1.0  0.00281  0.46842  0.95503  1.0000
  H   H46       1.0  0.97797  0.54503  0.99755  1.0000
  Mg  Mg14      1.0  0.97659  0.42291  0.91686  1.0000
  C   C87       1.0  0.58439  0.39341  0.03438  1.0000
  C   C88       1.0  0.58767  0.42295  0.01422  1.0000
  C  Sn29      1.0  0.61790  0.44775  0.98900  1.0000
  C  Sn30      1.0  0.64458  0.44426  0.98385  1.0000
  C   C89       1.0  0.64034  0.41604  0.00398  1.0000
  C   C90       1.0  0.61070  0.38995  0.02923  1.0000
  H   H47       1.0  0.56145  0.37323  0.05379  1.0000
  O  Te29      1.0  0.62076  0.47709  0.96917  1.0000
  O  Te30      1.0  0.67436  0.47008  0.95873  1.0000
  H   H48       1.0  0.60816  0.36708  0.04468  1.0000
  Mg  Mg15      1.0  0.66628  0.50522  0.93824  1.0000
  C   C91       1.0  0.60708  0.19402  0.98436  1.0000
  C   C92       1.0  0.57837  0.16788  0.02408  1.0000
  C  Sn31      1.0  0.55057  0.16835  0.04473  1.0000
  C  Sn32      1.0  0.55089  0.19699  0.02511  1.0000
  C   C93       1.0  0.57973  0.22301  0.98521  1.0000
  C   C94       1.0  0.60741  0.22228  0.96490  1.0000
  H   H49       1.0  0.62850  0.19346  0.96851  1.0000
  O  Te31      1.0  0.52279  0.14058  0.08449  1.0000
  O  Te32      1.0  0.52344  0.19812  0.04497  1.0000
  H   H50       1.0  0.62909  0.24363  0.93400  1.0000
  Mg  Mg16      1.0  0.49145  0.15408  0.09896  1.0000
  C   C95       1.0  0.80816  0.41532  0.98639  1.0000
  C   C96       1.0  0.83532  0.41339  0.99086  1.0000
  C  Sn33      1.0  0.83355  0.38448  0.98215  1.0000
  C  Sn34      1.0  0.80400  0.35703  0.96865  1.0000
  C   C97       1.0  0.77696  0.35920  0.96412  1.0000
  C   C98       1.0  0.77900  0.38825  0.97299  1.0000
  H   H51       1.0  0.80973  0.43779  0.99313  1.0000
  O  Te33      1.0  0.86092  0.38297  0.98686  1.0000
  O  Te34      1.0  0.80156  0.32783  0.95965  1.0000
  H   H52       1.0  0.75797  0.38974  0.96938  1.0000
  Mg  Mg17      1.0  0.84553  0.33780  0.97085  1.0000
  C   C99       1.0  0.36817  0.54249  0.13589  1.0000
  C   C100      1.0  0.39969  0.56358  0.09735  1.0000
  C  Sn35      1.0  0.41051  0.59548  0.08940  1.0000
  C  Sn36      1.0  0.38932  0.60641  0.12073  1.0000
  C   C101      1.0  0.35783  0.58513  0.15935  1.0000
  C   C102      1.0  0.34725  0.55326  0.16690  1.0000
  H   H53       1.0  0.35999  0.51783  0.14187  1.0000
  O  Te35      1.0  0.44208  0.61622  0.05064  1.0000
  O  Te36      1.0  0.39950  0.63818  0.11370  1.0000
  H   H54       1.0  0.32285  0.53694  0.19690  1.0000
  Mg  Mg18      1.0  0.44473  0.65731  0.05585  1.0000
  C   C103      1.0  0.45512  0.82614  0.11957  1.0000
  C   C104      1.0  0.43416  0.83707  0.09686  1.0000
  C  Sn37      1.0  0.40217  0.81616  0.08198  1.0000
  C  Sn38      1.0  0.39103  0.78373  0.09010  1.0000
  C   C105      1.0  0.41219  0.77303  0.11301  1.0000
  C   C106      1.0  0.44415  0.79416  0.12768  1.0000
  H   H55       1.0  0.47985  0.84248  0.13105  1.0000
  O  Te37      1.0  0.38155  0.82747  0.05926  1.0000
  O  Te38      1.0  0.35918  0.76232  0.07568  1.0000
  H   H56       1.0  0.46037  0.78569  0.14541  1.0000
  Mg  Mg19      1.0  0.34028  0.78910  0.04612  1.0000
  C   C107      1.0  0.17879  0.63265  0.01529  1.0000
  C   C108      1.0  0.16816  0.59982  0.97001  1.0000
  C  Sn39      1.0  0.18873  0.58849  0.94954  1.0000
  C  Sn40      1.0  0.22124  0.60904  0.97503  1.0000
  C   C109      1.0  0.23163  0.64185  0.02047  1.0000
  C   C110      1.0  0.21084  0.65293  0.04054  1.0000
  H   H57       1.0  0.16271  0.64123  0.03095  1.0000
  O  Te39      1.0  0.17702  0.55706  0.90417  1.0000
  O  Te40      1.0  0.24231  0.59834  0.95549  1.0000
  H   H58       1.0  0.21962  0.67724  0.07575  1.0000
  Mg  Mg20      1.0  0.21503  0.55354  0.89256  1.0000
