data_image0
_chemical_formula_structural       H18C30N30O18C2Sn2C2HTe2HMgC2Sn2C2HTe2HMgC2Sn2C2HTe2HMgC2Sn2C2HTe2HMgC2Sn2C2HTe2HMgC2Sn2C2HTe2HMgC2Sn2C2HTe2HMgC2Sn2C2HTe2HMgC2Sn2C2HTe2HMgC2Sn2C2HTe2HMgC2Sn2C2HTe2HMgC2Sn2C2HTe2HMgC2Sn2C2HTe2HMgC2Sn2C2HTe2HMgC2Sn2C2HTe2HMgC2Sn2C2HTe2HMgC2Sn2C2HTe2HMgC2Sn2C2HTe2HMgC2Sn2C2HTe2HMgC2Sn2C2HTe2HMgC2Sn2C2HTe2HMgC2Sn2C2HTe2HMgC2Sn2C2HTe2HMgC2Sn2C2HTe2HMg
_chemical_formula_sum              "H66 C126 N30 O18 Sn48 Te48 Mg24"
_cell_length_a       50.7482
_cell_length_b       51.1313
_cell_length_c       7.97724
_cell_angle_alpha    121.32
_cell_angle_beta     76.5925
_cell_angle_gamma    120.352

_symmetry_space_group_name_H-M    'P1'
_space_group_IT_number       1

loop_
  _space_group_symop_operation_xyz
  'x, y, z'

loop_
  _atom_site_type_symbol
  _atom_site_label
  _atom_site_symmetry_multiplicity
  _atom_site_fract_x
  _atom_site_fract_y
  _atom_site_fract_z
  _atom_site_occupancy
  H   H1        1.0  0.16264  0.56969  0.59711  1.0000
  H   H2        1.0  0.45288  0.60319  0.42211  1.0000
  H   H3        1.0  0.41001  0.86654  0.56273  1.0000
  H   H4        1.0  0.01338  0.49113  0.62095  1.0000
  H   H5        1.0  0.51713  0.52296  0.45260  1.0000
  H   H6        1.0  0.48928  0.00516  0.45395  1.0000
  H   H7        1.0  0.85599  0.44754  0.44141  1.0000
  H   H8        1.0  0.55498  0.41226  0.56816  1.0000
  H   H9        1.0  0.60706  0.16563  0.49907  1.0000
  H   H10       1.0  0.14267  0.55650  0.06641  1.0000
  H   H11       1.0  0.44300  0.58388  0.94285  1.0000
  H   H12       1.0  0.39876  0.84249  0.08096  1.0000
  H   H13       1.0  0.99824  0.50667  0.11367  1.0000
  H   H14       1.0  0.51040  0.50283  0.94346  1.0000
  H   H15       1.0  0.47353  0.98031  0.96073  1.0000
  H   H16       1.0  0.83900  0.43326  0.90146  1.0000
  H   H17       1.0  0.54850  0.39568  0.09280  1.0000
  H   H18       1.0  0.59416  0.14085  0.00349  1.0000
  C   C1        1.0  0.31463  0.67511  0.46531  1.0000
  C   C2        1.0  0.34329  0.65408  0.47593  1.0000
  C   C3        1.0  0.36543  0.70231  0.45118  1.0000
  C   C4        1.0  0.16592  0.58454  0.52523  1.0000
  C   C5        1.0  0.42965  0.58971  0.46391  1.0000
  C   C6        1.0  0.42609  0.85557  0.50124  1.0000
  C   C7        1.0  0.99522  0.49922  0.45756  1.0000
  C   C8        1.0  0.48671  0.48049  0.48639  1.0000
  C   C9        1.0  0.53338  0.02882  0.55383  1.0000
  C   C10       1.0  0.84899  0.42932  0.49646  1.0000
  C   C11       1.0  0.57735  0.42795  0.52883  1.0000
  C   C12       1.0  0.58845  0.17265  0.53578  1.0000
  C   C13       1.0  0.69714  0.34678  0.50583  1.0000
  C   C14       1.0  0.66898  0.36756  0.48641  1.0000
  C   C15       1.0  0.64610  0.31826  0.50148  1.0000
  C   C16       1.0  0.30265  0.65134  0.96664  1.0000
  C   C17       1.0  0.33018  0.62947  0.98216  1.0000
  C   C18       1.0  0.35359  0.67858  0.96511  1.0000
  C   C19       1.0  0.15038  0.57576  0.01802  1.0000
  C   C20       1.0  0.41963  0.56821  0.97235  1.0000
  C   C21       1.0  0.41401  0.83057  0.00382  1.0000
  C   C22       1.0  0.98104  0.52154  0.99087  1.0000
  C   C23       1.0  0.48096  0.46230  0.99692  1.0000
  C   C24       1.0  0.51845  0.00322  0.04423  1.0000
  C   C25       1.0  0.83640  0.42035  0.98419  1.0000
  C   C26       1.0  0.57043  0.40870  0.03699  1.0000
  C   C27       1.0  0.57581  0.14807  0.03498  1.0000
  C   C28       1.0  0.68781  0.32397  0.00371  1.0000
  C   C29       1.0  0.65889  0.34446  0.99001  1.0000
  C   C30       1.0  0.63680  0.29557  0.00871  1.0000
  N   N1        1.0  0.33909  0.70202  0.45045  1.0000
  N   N2        1.0  0.31512  0.65059  0.47857  1.0000
  N   N3        1.0  0.36934  0.67899  0.46189  1.0000
  N   N4        1.0  0.14338  0.58298  0.46516  1.0000
  N   N5        1.0  0.42129  0.56511  0.50342  1.0000
  N   N6        1.0  0.45344  0.87211  0.45668  1.0000
  N   N7        1.0  0.01855  0.50080  0.52723  1.0000
  N   N8        1.0  0.49478  0.50962  0.47342  1.0000
  N   N9        1.0  0.50375  0.00227  0.50419  1.0000
  N   N10       1.0  0.86829  0.42515  0.54905  1.0000
  N   N11       1.0  0.58211  0.45187  0.49221  1.0000
  N   N12       1.0  0.56134  0.15359  0.57046  1.0000
  N   N13       1.0  0.67235  0.31944  0.51313  1.0000
  N   N14       1.0  0.69735  0.37196  0.49470  1.0000
  N   N15       1.0  0.64269  0.34130  0.48476  1.0000
  N   N16       1.0  0.32767  0.67816  0.95491  1.0000
  N   N17       1.0  0.30201  0.62599  0.97856  1.0000
  N   N18       1.0  0.35667  0.65527  0.98052  1.0000
  N   N19       1.0  0.13203  0.58251  0.97698  1.0000
  N   N20       1.0  0.41216  0.54286  0.00317  1.0000
  N   N21       1.0  0.44019  0.84617  0.94364  1.0000
  N   N22       1.0  0.00397  0.51768  0.02506  1.0000
  N   N23       1.0  0.48863  0.49082  0.97911  1.0000
  N   N24       1.0  0.48836  0.97749  0.00837  1.0000
  N   N25       1.0  0.85967  0.42629  0.06316  1.0000
  N   N26       1.0  0.57529  0.43097  0.98575  1.0000
  N   N27       1.0  0.54820  0.12875  0.06258  1.0000
  N   N28       1.0  0.66335  0.29649  0.01308  1.0000
  N   N29       1.0  0.68717  0.34855  0.99180  1.0000
  N   N30       1.0  0.63288  0.31899  0.99850  1.0000
  O   O1        1.0  0.28802  0.67515  0.46448  1.0000
  O   O2        1.0  0.34214  0.62848  0.49147  1.0000
  O   O3        1.0  0.39231  0.72708  0.43540  1.0000
  O   O4        1.0  0.72292  0.34576  0.51192  1.0000
  O   O5        1.0  0.66979  0.39363  0.47688  1.0000
  O   O6        1.0  0.61898  0.29285  0.50864  1.0000
  O   O7        1.0  0.00019  0.51331  0.35686  1.0000
  O   O8        1.0  0.46016  0.46051  0.49805  1.0000
  O   O9        1.0  0.55399  0.02746  0.60116  1.0000
  O   O10       1.0  0.27707  0.65308  0.96469  1.0000
  O   O11       1.0  0.32904  0.60322  0.99066  1.0000
  O   O12       1.0  0.38095  0.70365  0.95573  1.0000
  O   O13       1.0  0.71456  0.32453  0.00932  1.0000
  O   O14       1.0  0.65991  0.37019  0.97525  1.0000
  O   O15       1.0  0.60978  0.27022  0.01667  1.0000
  O   O16       1.0  0.98537  0.54206  0.93641  1.0000
  O   O17       1.0  0.45454  0.44312  0.01813  1.0000
  O   O18       1.0  0.53928  0.00109  0.08325  1.0000
  C   C31       1.0  0.22924  0.60313  0.51316  1.0000
  C   C32       1.0  0.20330  0.60682  0.52474  1.0000
  C  Sn1       1.0  0.20551  0.63308  0.50118  1.0000
  C  Sn2       1.0  0.23426  0.65604  0.46532  1.0000
  C   C33       1.0  0.26007  0.65213  0.45385  1.0000
  C   C34       1.0  0.25760  0.62576  0.47772  1.0000
  H   H19       1.0  0.22732  0.58272  0.53152  1.0000
  O  Te1       1.0  0.17937  0.63641  0.51326  1.0000
  O  Te2       1.0  0.23712  0.68252  0.44113  1.0000
  H   H20       1.0  0.27768  0.62290  0.46862  1.0000
  Mg  Mg1       1.0  0.19490  0.67655  0.47031  1.0000
  C   C35       1.0  0.41584  0.63543  0.44079  1.0000
  C   C36       1.0  0.41118  0.60924  0.47491  1.0000
  C  Sn3       1.0  0.38189  0.58779  0.50777  1.0000
  C  Sn4       1.0  0.35684  0.59272  0.50631  1.0000
  C   C37       1.0  0.36173  0.61898  0.47190  1.0000
  C   C38       1.0  0.39114  0.64030  0.43925  1.0000
  H   H21       1.0  0.43859  0.65192  0.41542  1.0000
  O  Te3       1.0  0.37764  0.56175  0.54170  1.0000
  O  Te4       1.0  0.32732  0.57164  0.53866  1.0000
  H   H22       1.0  0.39474  0.66056  0.41271  1.0000
  Mg  Mg2       1.0  0.33311  0.53969  0.57823  1.0000
  C   C39       1.0  0.42978  0.77940  0.35399  1.0000
  C   C40       1.0  0.40464  0.76112  0.43449  1.0000
  C  Sn5       1.0  0.38344  0.77337  0.53543  1.0000
  C  Sn6       1.0  0.38755  0.80449  0.55586  1.0000
  C   C41       1.0  0.41277  0.82257  0.47467  1.0000
  C   C42       1.0  0.43385  0.81010  0.37401  1.0000
  H   H23       1.0  0.44608  0.76974  0.27602  1.0000
  O  Te5       1.0  0.35845  0.75479  0.61501  1.0000
  O  Te6       1.0  0.36671  0.81730  0.65595  1.0000
  H   H24       1.0  0.45330  0.82424  0.31159  1.0000
  Mg  Mg3       1.0  0.33631  0.78275  0.73856  1.0000
  C   C43       1.0  0.06675  0.56025  0.50775  1.0000
  C   C44       1.0  0.05160  0.52820  0.50294  1.0000
  C  Sn7       1.0  0.06818  0.51253  0.49434  1.0000
  C  Sn8       1.0  0.10054  0.52933  0.49057  1.0000
  C   C45       1.0  0.11548  0.56140  0.49558  1.0000
  C   C46       1.0  0.09867  0.57684  0.50411  1.0000
  H   H25       1.0  0.05374  0.57220  0.51446  1.0000
  O  Te7       1.0  0.05268  0.48050  0.48955  1.0000
  O  Te8       1.0  0.11768  0.51426  0.48207  1.0000
  H   H26       1.0  0.11041  0.60166  0.50797  1.0000
  Mg  Mg4       1.0  0.08612  0.47037  0.47814  1.0000
  C   C47       1.0  0.43718  0.50908  0.52679  1.0000
  C   C48       1.0  0.46781  0.51759  0.48204  1.0000
  C  Sn9       1.0  0.48630  0.54633  0.45308  1.0000
  C  Sn10      1.0  0.47383  0.56689  0.46937  1.0000
  C   C49       1.0  0.44317  0.55817  0.51433  1.0000
  C   C50       1.0  0.42487  0.52935  0.54295  1.0000
  H   H27       1.0  0.42302  0.48679  0.54904  1.0000
  O  Te9       1.0  0.51684  0.55446  0.40841  1.0000
  O  Te10      1.0  0.49180  0.59576  0.44123  1.0000
  H   H28       1.0  0.40117  0.52277  0.57772  1.0000
  Mg  Mg5       1.0  0.53214  0.59632  0.38301  1.0000
  C   C51       1.0  0.45321  0.93945  0.43956  1.0000
  C   C52       1.0  0.48309  0.96607  0.49839  1.0000
  C  Sn11      1.0  0.50485  0.96106  0.54109  1.0000
  C  Sn12      1.0  0.49646  0.92876  0.52440  1.0000
  C   C53       1.0  0.46651  0.90228  0.46529  1.0000
  C   C54       1.0  0.44492  0.90759  0.42299  1.0000
  H   H29       1.0  0.43651  0.94355  0.40672  1.0000
  O  Te11      1.0  0.53460  0.98793  0.59974  1.0000
  O  Te12      1.0  0.51775  0.92304  0.56611  1.0000
  H   H30       1.0  0.42178  0.88696  0.37732  1.0000
  Mg  Mg6       1.0  0.55544  0.96762  0.64051  1.0000
  C   C55       1.0  0.93603  0.49320  0.52056  1.0000
  C   C56       1.0  0.95888  0.48510  0.51402  1.0000
  C  Sn13      1.0  0.95129  0.45506  0.51764  1.0000
  C  Sn14      1.0  0.92022  0.43275  0.52795  1.0000
  C   C57       1.0  0.89753  0.44107  0.53428  1.0000
  C   C58       1.0  0.90539  0.47120  0.53065  1.0000
  H   H31       1.0  0.94211  0.51651  0.51763  1.0000
  O  Te13      1.0  0.97440  0.44737  0.51108  1.0000
  O  Te14      1.0  0.91199  0.40255  0.53169  1.0000
  H   H32       1.0  0.88769  0.47745  0.53558  1.0000
  Mg  Mg7       1.0  0.95173  0.40323  0.51982  1.0000
  C   C59       1.0  0.55207  0.49767  0.47461  1.0000
  C   C60       1.0  0.52027  0.47998  0.47728  1.0000
  C  Sn15      1.0  0.50637  0.45034  0.49833  1.0000
  C  Sn16      1.0  0.52472  0.43826  0.51708  1.0000
  C   C61       1.0  0.55653  0.45616  0.51438  1.0000
  C   C62       1.0  0.57019  0.48579  0.49318  1.0000
  H   H33       1.0  0.56265  0.52061  0.45832  1.0000
  O  Te15      1.0  0.47456  0.43296  0.50062  1.0000
  O  Te16      1.0  0.51143  0.40871  0.53838  1.0000
  H   H34       1.0  0.59482  0.49949  0.49124  1.0000
  Mg  Mg8       1.0  0.46714  0.39392  0.53298  1.0000
  C   C63       1.0  0.51860  0.08917  0.52920  1.0000
  C   C64       1.0  0.54732  0.11798  0.56976  1.0000
  C  Sn17      1.0  0.57311  0.11707  0.59540  1.0000
  C  Sn18      1.0  0.57000  0.08671  0.58001  1.0000
  C   C65       1.0  0.54116  0.05801  0.53925  1.0000
  C   C66       1.0  0.51551  0.05921  0.51392  1.0000
  H   H35       1.0  0.49875  0.09009  0.50949  1.0000
  O  Te17      1.0  0.60164  0.14608  0.63592  1.0000
  O  Te18      1.0  0.59539  0.08509  0.60491  1.0000
  H   H36       1.0  0.00240  0.03690  0.48239  1.0000
  Mg  Mg9       1.0  0.62943  0.13130  0.65797  1.0000
  C   C67       1.0  0.78126  0.35866  0.50401  1.0000
  C   C68       1.0  0.75755  0.36582  0.51498  1.0000
  C  Sn19      1.0  0.76377  0.39525  0.50917  1.0000
  C  Sn20      1.0  0.79431  0.41787  0.49198  1.0000
  C   C69       1.0  0.81786  0.41046  0.48096  1.0000
  C   C70       1.0  0.81139  0.38094  0.48698  1.0000
  H   H37       1.0  0.77625  0.33581  0.50856  1.0000
  O  Te19      1.0  0.73981  0.40203  0.52037  1.0000
  O  Te20      1.0  0.80116  0.44746  0.48576  1.0000
  H   H38       1.0  0.82975  0.37539  0.47836  1.0000
  Mg  Mg10      1.0  0.76068  0.44560  0.50597  1.0000
  C   C71       1.0  0.59504  0.38428  0.53756  1.0000
  C   C72       1.0  0.59910  0.41317  0.53444  1.0000
  C  Sn21      1.0  0.62761  0.43493  0.49545  1.0000
  C  Sn22      1.0  0.65246  0.42756  0.45891  1.0000
  C   C73       1.0  0.64815  0.39858  0.46222  1.0000
  C   C74       1.0  0.61954  0.37699  0.50146  1.0000
  H   H39       1.0  0.57289  0.36756  0.56781  1.0000
  O  Te21      1.0  0.63128  0.46369  0.49297  1.0000
  O  Te22      1.0  0.68119  0.44887  0.41947  1.0000
  H   H40       1.0  0.61639  0.35461  0.50374  1.0000
  Mg  Mg11      1.0  0.67482  0.48500  0.43223  1.0000
  C   C75       1.0  0.57729  0.23645  0.54440  1.0000
  C   C76       1.0  0.60666  0.26122  0.53799  1.0000
  C  Sn23      1.0  0.63195  0.25622  0.52233  1.0000
  C  Sn24      1.0  0.62768  0.22583  0.51287  1.0000
  C   C77       1.0  0.59820  0.20119  0.51925  1.0000
  C   C78       1.0  0.57306  0.20646  0.53500  1.0000
  H   H41       1.0  0.55783  0.24051  0.55648  1.0000
  O  Te23      1.0  0.66114  0.28124  0.51619  1.0000
  O  Te24      1.0  0.65256  0.22017  0.49710  1.0000
  H   H42       1.0  0.55031  0.18726  0.53983  1.0000
  Mg  Mg12      1.0  0.68785  0.26181  0.49413  1.0000
  C   C79       1.0  0.21117  0.58397  0.00397  1.0000
  C   C80       1.0  0.18823  0.59246  0.01842  1.0000
  C  Sn25      1.0  0.19522  0.62131  0.00341  1.0000
  C  Sn26      1.0  0.23226  0.72635  0.97331  1.0000
  C   C81       1.0  0.25504  0.71763  0.95891  1.0000
  C   C82       1.0  0.24779  0.68871  0.97422  1.0000
  H   H43       1.0  0.20556  0.56158  0.01570  1.0000
  O  Te25      1.0  0.17203  0.62943  0.01825  1.0000
  O  Te26      1.0  0.23988  0.75533  0.95770  1.0000
  H   H44       1.0  0.26555  0.68213  0.96289  1.0000
  Mg  Mg13      1.0  0.20027  0.75583  0.98758  1.0000
  C   C83       1.0  0.35796  0.55872  0.02155  1.0000
  C   C84       1.0  0.39528  0.65618  0.97694  1.0000
  C  Sn27      1.0  0.40911  0.68466  0.94466  1.0000
  C  Sn28      1.0  0.39170  0.70026  0.95743  1.0000
  C   C85       1.0  0.35438  0.60261  0.00228  1.0000
  C   C86       1.0  0.34077  0.57410  0.03424  1.0000
  H   H45       1.0  0.34743  0.53667  0.04639  1.0000
  O  Te27      1.0  0.43992  0.69741  0.90017  1.0000
  O  Te28      1.0  0.40495  0.72875  0.92592  1.0000
  H   H46       1.0  0.31691  0.56398  0.06890  1.0000
  Mg  Mg14      1.0  0.44770  0.73673  0.86942  1.0000
  C   C87       1.0  0.36631  0.75805  0.08138  1.0000
  C   C88       1.0  0.38544  0.81970  0.97593  1.0000
  C  Sn29      1.0  0.41220  0.82885  0.87512  1.0000
  C  Sn30      1.0  0.42653  0.86135  0.88029  1.0000
  C   C89       1.0  0.41372  0.88389  0.98632  1.0000
  C   C90       1.0  0.38043  0.79011  0.08662  1.0000
  H   H47       1.0  0.34560  0.75077  0.15908  1.0000
  O  Te29      1.0  0.42451  0.80586  0.77042  1.0000
  O  Te30      1.0  0.45329  0.87115  0.78091  1.0000
  H   H48       1.0  0.37067  0.80770  0.16836  1.0000
  Mg  Mg15      1.0  0.46130  0.83093  0.65860  1.0000
  C   C91       1.0  0.07694  0.52911  0.02305  1.0000
  C   C92       1.0  0.10312  0.64084  0.98375  1.0000
  C  Sn31      1.0  0.09180  0.65909  0.96478  1.0000
  C  Sn32      1.0  0.06018  0.64970  0.98567  1.0000
  C   C93       1.0  0.03419  0.53793  0.02512  1.0000
  C   C94       1.0  0.04576  0.51984  0.04375  1.0000
  H   H49       1.0  0.08589  0.51513  0.03758  1.0000
  O  Te31      1.0  0.11177  0.68636  0.92543  1.0000
  O  Te32      1.0  0.04826  0.66751  0.96750  1.0000
  H   H50       1.0  0.03052  0.49867  0.07431  1.0000
  Mg  Mg16      1.0  0.08463  0.70278  0.91344  1.0000
  C   C95       1.0  0.42094  0.49642  0.02961  1.0000
  C   C96       1.0  0.42996  0.52625  0.01907  1.0000
  C  Sn33      1.0  0.46668  0.62904  0.98120  1.0000
  C  Sn34      1.0  0.48821  0.61732  0.95339  1.0000
  C   C97       1.0  0.47895  0.58743  0.96409  1.0000
  C   C98       1.0  0.44215  0.48483  0.00212  1.0000
  H   H51       1.0  0.39749  0.48229  0.05893  1.0000
  O  Te33      1.0  0.47531  0.65880  0.97123  1.0000
  O  Te34      1.0  0.51856  0.63524  0.91527  1.0000
  H   H52       1.0  0.43517  0.46172  0.01015  1.0000
  Mg  Mg17      1.0  0.51929  0.67437  0.91572  1.0000
  C   C99       1.0  0.43802  0.91495  0.95492  1.0000
  C   C100      1.0  0.46842  0.94067  0.99663  1.0000
  C  Sn35      1.0  0.48458  0.85006  0.01590  1.0000
  C  Sn36      1.0  0.48308  0.90180  0.99284  1.0000
  C   C101      1.0  0.45261  0.87623  0.95099  1.0000
  C   C102      1.0  0.43012  0.88276  0.93208  1.0000
  H   H53       1.0  0.42062  0.91999  0.94018  1.0000
  O  Te35      1.0  0.51484  0.87605  0.05767  1.0000
  O  Te36      1.0  0.49878  0.81050  0.01126  1.0000
  H   H54       1.0  0.40659  0.86284  0.89966  1.0000
  Mg  Mg18      1.0  0.53688  0.85420  0.06903  1.0000
  C   C103      1.0  0.92178  0.44702  0.03683  1.0000
  C   C104      1.0  0.89523  0.45044  0.06471  1.0000
  C  Sn37      1.0  0.89598  0.47762  0.05855  1.0000
  C  Sn38      1.0  0.92386  0.50178  0.02375  1.0000
  C   C105      1.0  0.95679  0.58249  0.99589  1.0000
  C   C106      1.0  0.94928  0.47084  0.00242  1.0000
  H   H55       1.0  0.92100  0.42590  0.04177  1.0000
  O  Te37      1.0  0.86925  0.48065  0.08678  1.0000
  O  Te38      1.0  0.92525  0.52919  0.01677  1.0000
  H   H56       1.0  0.97633  0.55255  0.98070  1.0000
  Mg  Mg19      1.0  0.88273  0.52238  0.06402  1.0000
  C   C107      1.0  0.55806  0.47290  0.96788  1.0000
  C   C108      1.0  0.55425  0.44648  0.99666  1.0000
  C  Sn39      1.0  0.51854  0.33845  0.01463  1.0000
  C  Sn40      1.0  0.49270  0.34135  0.00346  1.0000
  C   C109      1.0  0.50325  0.45221  0.97449  1.0000
  C   C110      1.0  0.53259  0.47577  0.95677  1.0000
  H   H57       1.0  0.58076  0.49112  0.95406  1.0000
  O  Te39      1.0  0.51514  0.31222  0.04340  1.0000
  O  Te40      1.0  0.46324  0.31803  0.02086  1.0000
  H   H58       1.0  0.53553  0.49620  0.93436  1.0000
  Mg  Mg20      1.0  0.47035  0.28672  0.05866  1.0000
  C   C111      1.0  0.56514  0.08740  0.11096  1.0000
  C   C112      1.0  0.54816  0.09709  0.06025  1.0000
  C  Sn41      1.0  0.51725  0.07479  0.00294  1.0000
  C  Sn42      1.0  0.50965  0.12656  0.99648  1.0000
  C   C113      1.0  0.52033  0.03277  0.04763  1.0000
  C   C114      1.0  0.55124  0.05528  0.10470  1.0000
  H   H59       1.0  0.58905  0.10483  0.15523  1.0000
  O  Te41      1.0  0.50712  0.16922  0.95268  1.0000
  O  Te42      1.0  0.47880  0.10378  0.93980  1.0000
  H   H60       1.0  0.56438  0.04778  0.14408  1.0000
  Mg  Mg21      1.0  0.46574  0.12921  0.88486  1.0000
  C   C115      1.0  0.79219  0.36118  0.03775  1.0000
  C   C116      1.0  0.81051  0.47285  0.99683  1.0000
  C  Sn43      1.0  0.79090  0.48174  0.96526  1.0000
  C  Sn44      1.0  0.75887  0.46289  0.97499  1.0000
  C   C117      1.0  0.74077  0.35127  0.01616  1.0000
  C   C118      1.0  0.76060  0.34259  0.04745  1.0000
  H   H61       1.0  0.80752  0.35447  0.06206  1.0000
  O  Te43      1.0  0.80310  0.50909  0.92448  1.0000
  O  Te44      1.0  0.73876  0.47123  0.94412  1.0000
  H   H62       1.0  0.75143  0.32145  0.07925  1.0000
  Mg  Mg22      1.0  0.76639  0.51062  0.89316  1.0000
  C   C119      1.0  0.59786  0.35843  0.04894  1.0000
  C   C120      1.0  0.63440  0.45419  0.98797  1.0000
  C  Sn45      1.0  0.64787  0.48220  0.95168  1.0000
  C  Sn46      1.0  0.63091  0.49906  0.97707  1.0000
  C   C121      1.0  0.59438  0.40312  0.03824  1.0000
  C   C122      1.0  0.58112  0.37506  0.07409  1.0000
  H   H63       1.0  0.58760  0.33674  0.07679  1.0000
  O  Te45      1.0  0.67790  0.49325  0.89078  1.0000
  O  Te46      1.0  0.64383  0.52713  0.94189  1.0000
  H   H64       1.0  0.55787  0.36625  0.12142  1.0000
  Mg  Mg23      1.0  0.68549  0.53261  0.86120  1.0000
  C   C123      1.0  0.56680  0.21313  0.04146  1.0000
  C   C124      1.0  0.59651  0.23765  0.03791  1.0000
  C  Sn47      1.0  0.62136  0.23209  0.02479  1.0000
  C  Sn48      1.0  0.61629  0.20137  0.01502  1.0000
  C   C125      1.0  0.58648  0.17698  0.01853  1.0000
  C   C126      1.0  0.56178  0.18281  0.03175  1.0000
  H   H65       1.0  0.54769  0.21763  0.05157  1.0000
  O  Te47      1.0  0.65089  0.25686  0.02149  1.0000
  O  Te48      1.0  0.64070  0.19514  0.00177  1.0000
  H   H66       1.0  0.53878  0.16381  0.03436  1.0000
  Mg  Mg24      1.0  0.67673  0.23664  0.00218  1.0000
