data_image0
_chemical_formula_structural       H52C81N30O18SnCSn2CSnTe4Mg2SnCSn2CSnTe4Mg2SnCSn2CSnTe4Mg2SnCSn2CSnTe4Mg2SnCSn2CSnTe4Mg2SnCSn2CSnTe4Mg2SnCSn2CSnTe4Mg2SnCSn2CSnTe4Mg2SnCSn2CSnTe4Mg2SnCSn2CSnTe4Mg2
_chemical_formula_sum              "H52 C101 N30 O18 Sn40 Te40 Mg20"
_cell_length_a       49.592
_cell_length_b       49.7162
_cell_length_c       5.83106
_cell_angle_alpha    89.129
_cell_angle_beta     90.6937
_cell_angle_gamma    120.06

_symmetry_space_group_name_H-M    'P1'
_space_group_IT_number       1

loop_
  _space_group_symop_operation_xyz
  'x, y, z'

loop_
  _atom_site_type_symbol
  _atom_site_label
  _atom_site_symmetry_multiplicity
  _atom_site_fract_x
  _atom_site_fract_y
  _atom_site_fract_z
  _atom_site_occupancy
  H   H1        1.0  0.56982  0.51579  0.46292  1.0000
  H   H2        1.0  0.52458  0.52509  0.46989  1.0000
  H   H3        1.0  0.00292  0.47719  0.51858  1.0000
  H   H4        1.0  0.46100  0.42942  0.49828  1.0000
  H   H5        1.0  0.96720  0.53896  0.50416  1.0000
  H   H6        1.0  0.50366  0.41828  0.51303  1.0000
  H   H7        1.0  0.47902  0.56812  0.48396  1.0000
  H   H8        1.0  0.44509  0.91934  0.52380  1.0000
  H   H9        1.0  0.08687  0.51950  0.47534  1.0000
  H   H10       1.0  0.45716  0.59138  0.51380  1.0000
  H   H11       1.0  0.41258  0.87154  0.53819  1.0000
  H   H12       1.0  0.13403  0.54122  0.44657  1.0000
  H   H13       1.0  0.53916  0.41255  0.50340  1.0000
  H   H14       1.0  0.58706  0.12614  0.52961  1.0000
  H   H15       1.0  0.87358  0.45969  0.46786  1.0000
  H   H16       1.0  0.62030  0.17885  0.52714  1.0000
  H   H17       1.0  0.82229  0.44214  0.48932  1.0000
  H   H18       1.0  0.63211  0.23508  0.53287  1.0000
  H   H19       1.0  0.76503  0.39913  0.49966  1.0000
  H   H20       1.0  0.53475  0.20221  0.46198  1.0000
  H   H21       1.0  0.79439  0.33198  0.53300  1.0000
  H   H22       1.0  0.52429  0.14791  0.47370  1.0000
  H   H23       1.0  0.85125  0.37559  0.51480  1.0000
  H   H24       1.0  0.43490  0.62213  0.50332  1.0000
  H   H25       1.0  0.37641  0.81499  0.50565  1.0000
  H   H26       1.0  0.19010  0.56518  0.52420  1.0000
  H   H27       1.0  0.39025  0.63240  0.50713  1.0000
  H   H28       1.0  0.24366  0.60921  0.55936  1.0000
  H   H29       1.0  0.32669  0.53270  0.44811  1.0000
  H   H30       1.0  0.20712  0.67076  0.46316  1.0000
  H   H31       1.0  0.37105  0.52405  0.49392  1.0000
  H   H32       1.0  0.47360  0.84791  0.47039  1.0000
  H   H33       1.0  0.15188  0.62526  0.47167  1.0000
  H   H34       1.0  0.56897  0.51733  0.02442  1.0000
  H   H35       1.0  0.52438  0.52490  0.01997  1.0000
  H   H36       1.0  0.00367  0.47683  0.98292  1.0000
  H   H37       1.0  0.46234  0.42876  0.96977  1.0000
  H   H38       1.0  0.96868  0.53919  0.98672  1.0000
  H   H39       1.0  0.50557  0.41863  0.98647  1.0000
  H   H40       1.0  0.47291  0.55665  0.98412  1.0000
  H   H41       1.0  0.43515  0.91383  0.03428  1.0000
  H   H42       1.0  0.08632  0.52501  0.97713  1.0000
  H   H43       1.0  0.45573  0.58779  0.96881  1.0000
  H   H44       1.0  0.40990  0.86949  0.98498  1.0000
  H   H45       1.0  0.13207  0.54440  0.97719  1.0000
  H   H46       1.0  0.54040  0.41488  0.00948  1.0000
  H   H47       1.0  0.58863  0.12767  0.97230  1.0000
  H   H48       1.0  0.87494  0.46024  0.02979  1.0000
  H   H49       1.0  0.82199  0.44181  0.99485  1.0000
  H   H50       1.0  0.76547  0.39855  0.00350  1.0000
  H   H51       1.0  0.79671  0.33227  0.96259  1.0000
  H   H52       1.0  0.85194  0.37533  0.97415  1.0000
  C   C1        1.0  0.54810  0.49793  0.38438  1.0000
  C   C2        1.0  0.52074  0.50502  0.37775  1.0000
  C   C3        1.0  0.98520  0.48129  0.60876  1.0000
  C   C4        1.0  0.48970  0.47799  0.45598  1.0000
  C   C5        1.0  0.98761  0.51136  0.52366  1.0000
  C   C6        1.0  0.48517  0.44856  0.49787  1.0000
  C   C7        1.0  0.96190  0.51471  0.50831  1.0000
  C   C8        1.0  0.50966  0.44238  0.51457  1.0000
  C   C9        1.0  0.54136  0.46636  0.47963  1.0000
  C   C10       1.0  0.46252  0.48109  0.37709  1.0000
  C   C11       1.0  0.52436  0.98463  0.60450  1.0000
  C   C12       1.0  0.01576  0.53930  0.60845  1.0000
  C   C13       1.0  0.43445  0.56974  0.52066  1.0000
  C   C14       1.0  0.43162  0.86695  0.50250  1.0000
  C   C15       1.0  0.13573  0.56370  0.48276  1.0000
  C   C16       1.0  0.56237  0.43342  0.52003  1.0000
  C   C17       1.0  0.56590  0.12835  0.50777  1.0000
  C   C18       1.0  0.87145  0.43670  0.47290  1.0000
  C   C19       1.0  0.57161  0.15913  0.48075  1.0000
  C   C20       1.0  0.84035  0.41168  0.51142  1.0000
  C   C21       1.0  0.60168  0.18468  0.51229  1.0000
  C   C22       1.0  0.81631  0.41790  0.50519  1.0000
  C   C23       1.0  0.60832  0.21515  0.53096  1.0000
  C   C24       1.0  0.78384  0.39405  0.52677  1.0000
  C   C25       1.0  0.58413  0.22384  0.48907  1.0000
  C   C26       1.0  0.77494  0.36140  0.52433  1.0000
  C   C27       1.0  0.55323  0.19853  0.39430  1.0000
  C   C28       1.0  0.80006  0.35432  0.60702  1.0000
  C   C29       1.0  0.54630  0.16461  0.39281  1.0000
  C   C30       1.0  0.83524  0.38096  0.61105  1.0000
  C   C31       1.0  0.40737  0.57274  0.48639  1.0000
  C   C32       1.0  0.42524  0.83583  0.47014  1.0000
  C   C33       1.0  0.16611  0.59103  0.50684  1.0000
  C   C34       1.0  0.66986  0.36027  0.63112  1.0000
  C   C35       1.0  0.64092  0.31746  0.51399  1.0000
  C   C36       1.0  0.68607  0.33945  0.37328  1.0000
  C   C37       1.0  0.41132  0.60223  0.49176  1.0000
  C   C38       1.0  0.39572  0.81092  0.48204  1.0000
  C   C39       1.0  0.19125  0.58530  0.61519  1.0000
  C   C40       1.0  0.38580  0.60891  0.46584  1.0000
  C   C41       1.0  0.22543  0.61405  0.61365  1.0000
  C   C42       1.0  0.35326  0.58256  0.48297  1.0000
  C   C43       1.0  0.23046  0.64478  0.51356  1.0000
  C   C44       1.0  0.34920  0.55221  0.39038  1.0000
  C   C45       1.0  0.20256  0.64695  0.46355  1.0000
  C   C46       1.0  0.37719  0.54554  0.38818  1.0000
  C   C47       1.0  0.45096  0.83106  0.39007  1.0000
  C   C48       1.0  0.17138  0.62086  0.47983  1.0000
  C   C49       1.0  0.32578  0.63909  0.34395  1.0000
  C   C50       1.0  0.36190  0.68160  0.52246  1.0000
  C   C51       1.0  0.31515  0.67167  0.53201  1.0000
  C   C52       1.0  0.54788  0.49844  0.10267  1.0000
  C   C53       1.0  0.51992  0.50450  0.11314  1.0000
  C   C54       1.0  0.98565  0.48111  0.89895  1.0000
  C   C55       1.0  0.48918  0.47707  0.03860  1.0000
  C   C56       1.0  0.98953  0.51155  0.97139  1.0000
  C   C57       1.0  0.48617  0.44857  0.98240  1.0000
  C   C58       1.0  0.96414  0.51530  0.98503  1.0000
  C   C59       1.0  0.51096  0.44279  0.97490  1.0000
  C   C60       1.0  0.54275  0.46775  0.00748  1.0000
  C   C61       1.0  0.46008  0.47556  0.11748  1.0000
  C   C62       1.0  0.51835  0.98171  0.87605  1.0000
  C   C63       1.0  0.01900  0.53779  0.87668  1.0000
  C   C64       1.0  0.43243  0.56758  0.99732  1.0000
  C   C65       1.0  0.43076  0.86686  0.98549  1.0000
  C   C66       1.0  0.13515  0.56770  0.99926  1.0000
  C   C67       1.0  0.56368  0.43540  0.98425  1.0000
  C   C68       1.0  0.56698  0.12885  0.99814  1.0000
  C   C69       1.0  0.87227  0.43695  0.02813  1.0000
  C   C70       1.0  0.84113  0.41200  0.98104  1.0000
  C   C71       1.0  0.81660  0.41766  0.98957  1.0000
  C   C72       1.0  0.78411  0.39344  0.97177  1.0000
  C   C73       1.0  0.77590  0.36090  0.97480  1.0000
  C   C74       1.0  0.80100  0.35448  0.88828  1.0000
  C   C75       1.0  0.83619  0.38145  0.87616  1.0000
  C   C76       1.0  0.67278  0.35420  0.87048  1.0000
  C   C77       1.0  0.64586  0.30932  0.02356  1.0000
  C   C78       1.0  0.68970  0.33451  0.14319  1.0000
  C   C79       1.0  0.31719  0.62402  0.12230  1.0000
  C   C80       1.0  0.35634  0.68767  0.98493  1.0000
  C   C81       1.0  0.30244  0.65920  0.02534  1.0000
  N   N1        1.0  0.56552  0.46211  0.48972  1.0000
  N   N2        1.0  0.53757  0.10387  0.48771  1.0000
  N   N3        1.0  0.89675  0.43332  0.51194  1.0000
  N   N4        1.0  0.46176  0.54475  0.51633  1.0000
  N   N5        1.0  0.46582  0.91937  0.48570  1.0000
  N   N6        1.0  0.08276  0.53758  0.52014  1.0000
  N   N7        1.0  0.43481  0.54269  0.52933  1.0000
  N   N8        1.0  0.46082  0.89147  0.46865  1.0000
  N   N9        1.0  0.10872  0.56359  0.52412  1.0000
  N   N10       1.0  0.63810  0.34169  0.53853  1.0000
  N   N11       1.0  0.66142  0.31040  0.48484  1.0000
  N   N12       1.0  0.69266  0.36541  0.48133  1.0000
  N   N13       1.0  0.35501  0.65565  0.42729  1.0000
  N   N14       1.0  0.34414  0.69559  0.55621  1.0000
  N   N15       1.0  0.30346  0.64474  0.44006  1.0000
  N   N16       1.0  0.56763  0.46459  0.99631  1.0000
  N   N17       1.0  0.53909  0.10395  0.00638  1.0000
  N   N18       1.0  0.89759  0.43348  0.99710  1.0000
  N   N19       1.0  0.45280  0.53539  0.02478  1.0000
  N   N20       1.0  0.45770  0.91910  0.98494  1.0000
  N   N21       1.0  0.08257  0.54318  0.02690  1.0000
  N   N22       1.0  0.42876  0.53878  0.03245  1.0000
  N   N23       1.0  0.45848  0.89362  0.96896  1.0000
  N   N24       1.0  0.10856  0.56881  0.03699  1.0000
  N   N25       1.0  0.64196  0.33180  0.97248  1.0000
  N   N26       1.0  0.66790  0.30319  0.05255  1.0000
  N   N27       1.0  0.69737  0.35740  0.98244  1.0000
  N   N28       1.0  0.37779  0.68586  0.93120  1.0000
  N   N29       1.0  0.32843  0.68429  0.03112  1.0000
  N   N30       1.0  0.30006  0.62657  0.97431  1.0000
  O   O1        1.0  0.66303  0.41171  0.49357  1.0000
  O   O2        1.0  0.58863  0.25023  0.51040  1.0000
  O   O3        1.0  0.74815  0.34015  0.48832  1.0000
  O   O4        1.0  0.33057  0.58559  0.51331  1.0000
  O   O5        1.0  0.40966  0.74583  0.51722  1.0000
  O   O6        1.0  0.25659  0.66776  0.49787  1.0000
  O   O7        1.0  0.44314  0.48312  0.50727  1.0000
  O   O8        1.0  0.53658  0.97220  0.50578  1.0000
  O   O9        1.0  0.02935  0.56487  0.49950  1.0000
  O   O10       1.0  0.65948  0.40690  0.01095  1.0000
  O   O11       1.0  0.58765  0.25089  0.99705  1.0000
  O   O12       1.0  0.74985  0.33855  0.01475  1.0000
  O   O13       1.0  0.33094  0.58611  0.98272  1.0000
  O   O14       1.0  0.41102  0.74732  0.98073  1.0000
  O   O15       1.0  0.25859  0.66678  0.98730  1.0000
  O   O16       1.0  0.43482  0.46243  0.00742  1.0000
  O   O17       1.0  0.51729  0.95973  0.00074  1.0000
  O   O18       1.0  0.03958  0.55947  0.99182  1.0000
  C  Sn1       1.0  0.19785  0.58891  0.94298  1.0000
  C   C82       1.0  0.17086  0.59092  0.96284  1.0000
  C  Sn2       1.0  0.17178  0.61913  0.92209  1.0000
  C  Sn3       1.0  0.20027  0.64589  0.86005  1.0000
  C   C83       1.0  0.22724  0.64387  0.84018  1.0000
  C  Sn4       1.0  0.22634  0.61567  0.88094  1.0000
  O  Te1       1.0  0.19639  0.56047  0.98451  1.0000
  O  Te2       1.0  0.14450  0.62056  0.94310  1.0000
  O  Te3       1.0  0.20172  0.67434  0.81853  1.0000
  O  Te4       1.0  0.25361  0.61422  0.85993  1.0000
  Mg  Mg1       1.0  0.15832  0.66457  0.86894  1.0000
  Mg  Mg2       1.0  0.23981  0.57023  0.93393  1.0000
  C  Sn5       1.0  0.62804  0.45609  0.55776  1.0000
  C   C84       1.0  0.59650  0.43549  0.51435  1.0000
  C  Sn6       1.0  0.58396  0.40358  0.55000  1.0000
  C  Sn7       1.0  0.60335  0.39202  0.63087  1.0000
  C   C85       1.0  0.63487  0.41261  0.67427  1.0000
  C  Sn8       1.0  0.64743  0.44452  0.63863  1.0000
  O  Te5       1.0  0.64008  0.48790  0.52092  1.0000
  O  Te6       1.0  0.55236  0.38344  0.50532  1.0000
  O  Te7       1.0  0.59128  0.36018  0.66769  1.0000
  O  Te8       1.0  0.67900  0.46466  0.68330  1.0000
  Mg  Mg3       1.0  0.54683  0.34205  0.58214  1.0000
  Mg  Mg4       1.0  0.68456  0.50605  0.60666  1.0000
  C  Sn9       1.0  0.40807  0.60633  0.09242  1.0000
  C   C86       1.0  0.40688  0.57764  0.09482  1.0000
  C  Sn10      1.0  0.37898  0.55039  0.04712  1.0000
  C  Sn11      1.0  0.35241  0.55042  0.99582  1.0000
  C   C87       1.0  0.35361  0.57909  0.99340  1.0000
  C  Sn12      1.0  0.38080  0.60779  0.04112  1.0000
  O  Te9       1.0  0.43622  0.63327  0.14061  1.0000
  O  Te10      1.0  0.37835  0.52198  0.05063  1.0000
  O  Te11      1.0  0.32425  0.52344  0.94762  1.0000
  O  Te12      1.0  0.38143  0.63619  0.03759  1.0000
  Mg  Mg5       1.0  0.33517  0.49028  0.97341  1.0000
  Mg  Mg6       1.0  0.42531  0.66646  0.11467  1.0000
  C  Sn13      1.0  0.59975  0.38939  0.04118  1.0000
  C   C88       1.0  0.63199  0.40944  0.04157  1.0000
  C  Sn14      1.0  0.64443  0.44121  0.07768  1.0000
  C  Sn15      1.0  0.62423  0.45320  0.11433  1.0000
  C   C89       1.0  0.59201  0.43315  0.11397  1.0000
  C  Sn16      1.0  0.57955  0.40137  0.07783  1.0000
  O  Te13      1.0  0.58783  0.35770  0.00474  1.0000
  O  Te14      1.0  0.67674  0.46080  0.07723  1.0000
  O  Te15      1.0  0.63618  0.48491  0.15078  1.0000
  O  Te16      1.0  0.54727  0.38179  0.07830  1.0000
  Mg  Mg7       1.0  0.68179  0.50223  0.13474  1.0000
  Mg  Mg8       1.0  0.54219  0.34035  0.02094  1.0000
  C  Sn17      1.0  0.54416  0.16952  0.05160  1.0000
  C   C90       1.0  0.56597  0.15962  0.04123  1.0000
  C  Sn18      1.0  0.59755  0.18053  0.07977  1.0000
  C  Sn19      1.0  0.60753  0.21199  0.12988  1.0000
  C   C91       1.0  0.58572  0.22188  0.14027  1.0000
  C  Sn20      1.0  0.55414  0.20098  0.10170  1.0000
  O  Te17      1.0  0.51271  0.14822  0.01249  1.0000
  O  Te18      1.0  0.61893  0.17008  0.06840  1.0000
  O  Te19      1.0  0.63902  0.23329  0.16899  1.0000
  O  Te20      1.0  0.53277  0.21141  0.11309  1.0000
  Mg  Mg9       1.0  0.65924  0.20791  0.13470  1.0000
  Mg  Mg10      1.0  0.49246  0.17360  0.04694  1.0000
  C  Sn21      1.0  0.44965  0.80746  0.34571  1.0000
  C   C92       1.0  0.42321  0.79739  0.48155  1.0000
  C  Sn22      1.0  0.39346  0.78001  0.38600  1.0000
  C  Sn23      1.0  0.39007  0.77252  0.14977  1.0000
  C   C93       1.0  0.41650  0.78259  0.01407  1.0000
  C  Sn24      1.0  0.44626  0.79997  0.10947  1.0000
  O  Te21      1.0  0.47917  0.82480  0.44486  1.0000
  O  Te22      1.0  0.36738  0.77021  0.52525  1.0000
  O  Te23      1.0  0.36052  0.75517  0.05068  1.0000
  O  Te24      1.0  0.47304  0.80833  0.97038  1.0000
  Mg  Mg11      1.0  0.33210  0.74713  0.31087  1.0000
  Mg  Mg12      1.0  0.50762  0.83283  0.18458  1.0000
  C  Sn25      1.0  0.55431  0.04188  0.59004  1.0000
  C   C94       1.0  0.52616  0.01512  0.53790  1.0000
  C  Sn26      1.0  0.50012  0.01727  0.47224  1.0000
  C  Sn27      1.0  0.50226  0.04679  0.45825  1.0000
  C   C95       1.0  0.53041  0.07353  0.51034  1.0000
  C  Sn28      1.0  0.55646  0.07140  0.57606  1.0000
  O  Te25      1.0  0.58005  0.03918  0.65529  1.0000
  O  Te26      1.0  0.97438  0.99019  0.42102  1.0000
  O  Te27      1.0  0.47649  0.04947  0.39294  1.0000
  O  Te28      1.0  0.58435  0.09846  0.62721  1.0000
  Mg  Mg13      1.0  0.44363  0.00588  0.34016  1.0000
  Mg  Mg14      1.0  0.61295  0.08280  0.70798  1.0000
  C  Sn29      1.0  0.94297  0.44378  0.66235  1.0000
  C   C96       1.0  0.93497  0.46063  0.50972  1.0000
  C  Sn30      1.0  0.93287  0.48602  0.58589  1.0000
  C  Sn31      1.0  0.93892  0.49477  0.81947  1.0000
  C   C97       1.0  0.94692  0.47793  0.97195  1.0000
  C  Sn32      1.0  0.94902  0.45253  0.89593  1.0000
  O  Te29      1.0  0.94493  0.41848  0.58244  1.0000
  O  Te30      1.0  0.92482  0.50250  0.43010  1.0000
  O  Te31      1.0  0.93695  0.52009  0.89931  1.0000
  O  Te32      1.0  0.95636  0.43749  0.05157  1.0000
  Mg  Mg15      1.0  0.92516  0.53524  0.62130  1.0000
  Mg  Mg16      1.0  0.95675  0.40332  0.86055  1.0000
  C  Sn33      1.0  0.55462  0.04542  0.01769  1.0000
  C   C98       1.0  0.52589  0.01881  0.06059  1.0000
  C  Sn34      1.0  0.49816  0.01853  0.00963  1.0000
  C  Sn35      1.0  0.49987  0.04398  0.91366  1.0000
  C   C99       1.0  0.52859  0.07056  0.87077  1.0000
  C  Sn36      1.0  0.55634  0.07086  0.92171  1.0000
  O  Te33      1.0  0.58206  0.04517  0.06996  1.0000
  O  Te34      1.0  0.97188  0.99166  0.05412  1.0000
  O  Te35      1.0  0.47241  0.04420  0.86140  1.0000
  O  Te36      1.0  0.58477  0.09770  0.87724  1.0000
  Mg  Mg17      1.0  0.43940  0.00197  0.95317  1.0000
  Mg  Mg18      1.0  0.61579  0.08599  0.97800  1.0000
  C  Sn37      1.0  0.39302  0.80452  0.07732  1.0000
  C   C100      1.0  0.42195  0.83187  0.07428  1.0000
  C  Sn38      1.0  0.44905  0.83096  0.02816  1.0000
  C  Sn39      1.0  0.44791  0.80068  0.98400  1.0000
  C   C101      1.0  0.41900  0.77335  0.98702  1.0000
  C  Sn40      1.0  0.39118  0.77566  0.03317  1.0000
  O  Te37      1.0  0.36623  0.80598  0.12382  1.0000
  O  Te38      1.0  0.47770  0.85862  0.02613  1.0000
  O  Te39      1.0  0.47474  0.79924  0.93749  1.0000
  O  Te40      1.0  0.36254  0.74803  0.03517  1.0000
  Mg  Mg19      1.0  0.50833  0.84321  0.95390  1.0000
  Mg  Mg20      1.0  0.33260  0.76198  0.10726  1.0000
