data_image0
_chemical_formula_structural       H66C102N30O18C2Sn2C2HTe2HMgC2Sn2C2HTe2HMgC2Sn2C2HTe2HMgC2Sn2C2HTe2HMgC2Sn2C2HTe2HMgC2Sn2C2HTe2HMgC2Sn2C2HTe2HMgC2Sn2C2HTe2HMgC2Sn2C2HTe2HMgC2Sn2C2HTe2HMgC2Sn2C2HTe2HMgC2Sn2C2HTe2HMg
_chemical_formula_sum              "H90 C150 N30 O18 Sn24 Te24 Mg12"
_cell_length_a       50.7482
_cell_length_b       51.1313
_cell_length_c       7.97724
_cell_angle_alpha    121.32
_cell_angle_beta     76.5925
_cell_angle_gamma    120.352

_symmetry_space_group_name_H-M    'P1'
_space_group_IT_number       1

loop_
  _space_group_symop_operation_xyz
  'x, y, z'

loop_
  _atom_site_type_symbol
  _atom_site_label
  _atom_site_symmetry_multiplicity
  _atom_site_fract_x
  _atom_site_fract_y
  _atom_site_fract_z
  _atom_site_occupancy
  H   H1        1.0  0.24191  0.67922  0.44928  1.0000
  H   H2        1.0  0.43785  0.75891  0.29501  1.0000
  H   H3        1.0  0.18702  0.63981  0.46874  1.0000
  H   H4        1.0  0.45491  0.81671  0.32368  1.0000
  H   H5        1.0  0.21561  0.58039  0.54421  1.0000
  H   H6        1.0  0.37386  0.81872  0.63094  1.0000
  H   H7        1.0  0.26960  0.61773  0.51065  1.0000
  H   H8        1.0  0.35736  0.76206  0.60750  1.0000
  H   H9        1.0  0.16264  0.56969  0.59711  1.0000
  H   H10       1.0  0.45288  0.60319  0.42211  1.0000
  H   H11       1.0  0.41001  0.86654  0.56273  1.0000
  H   H12       1.0  0.01338  0.49113  0.62095  1.0000
  H   H13       1.0  0.51713  0.52296  0.45260  1.0000
  H   H14       1.0  0.48928  0.00516  0.45395  1.0000
  H   H15       1.0  0.95380  0.51792  0.51445  1.0000
  H   H16       1.0  0.58686  0.08039  0.59810  1.0000
  H   H17       1.0  0.89844  0.48831  0.55895  1.0000
  H   H18       1.0  0.60170  0.13621  0.61528  1.0000
  H   H19       1.0  0.90911  0.40834  0.53639  1.0000
  H   H20       1.0  0.50743  0.10333  0.52367  1.0000
  H   H21       1.0  0.96522  0.43908  0.50134  1.0000
  H   H22       1.0  0.49262  0.04846  0.51236  1.0000
  H   H23       1.0  0.85599  0.44754  0.44141  1.0000
  H   H24       1.0  0.55498  0.41226  0.56816  1.0000
  H   H25       1.0  0.60706  0.16563  0.49907  1.0000
  H   H26       1.0  0.80416  0.44263  0.48881  1.0000
  H   H27       1.0  0.74802  0.40760  0.49829  1.0000
  H   H28       1.0  0.76404  0.33408  0.51508  1.0000
  H   H29       1.0  0.82072  0.36994  0.51100  1.0000
  H   H30       1.0  0.32075  0.55576  0.04068  1.0000
  H   H31       1.0  0.42466  0.73269  0.78900  1.0000
  H   H32       1.0  0.35922  0.53792  0.03236  1.0000
  H   H33       1.0  0.44135  0.78983  0.80914  1.0000
  H   H34       1.0  0.42911  0.62038  0.92225  1.0000
  H   H35       1.0  0.36340  0.79548  0.14836  1.0000
  H   H36       1.0  0.39138  0.63857  0.93470  1.0000
  H   H37       1.0  0.34695  0.73920  0.12928  1.0000
  H   H38       1.0  0.14267  0.55650  0.06641  1.0000
  H   H39       1.0  0.44300  0.58388  0.94285  1.0000
  H   H40       1.0  0.39876  0.84249  0.08096  1.0000
  H   H41       1.0  0.09580  0.60156  0.95269  1.0000
  H   H42       1.0  0.03877  0.57512  0.97314  1.0000
  H   H43       1.0  0.04027  0.49786  0.04200  1.0000
  H   H44       1.0  0.09607  0.52381  0.02302  1.0000
  H   H45       1.0  0.99824  0.50667  0.11367  1.0000
  H   H46       1.0  0.51040  0.50283  0.94346  1.0000
  H   H47       1.0  0.47353  0.98031  0.96073  1.0000
  H   H48       1.0  0.93001  0.52565  0.01814  1.0000
  H   H49       1.0  0.57105  0.05716  0.12762  1.0000
  H   H50       1.0  0.87653  0.48573  0.05192  1.0000
  H   H51       1.0  0.58647  0.11308  0.14629  1.0000
  H   H52       1.0  0.90888  0.42303  0.05735  1.0000
  H   H53       1.0  0.49476  0.07589  0.97468  1.0000
  H   H54       1.0  0.96154  0.46196  0.02026  1.0000
  H   H55       1.0  0.47927  0.02038  0.95693  1.0000
  H   H56       1.0  0.83900  0.43326  0.90146  1.0000
  H   H57       1.0  0.54850  0.39568  0.09280  1.0000
  H   H58       1.0  0.59416  0.14085  0.00349  1.0000
  H   H59       1.0  0.56154  0.35743  0.08759  1.0000
  H   H60       1.0  0.63241  0.19210  0.00524  1.0000
  H   H61       1.0  0.59887  0.33714  0.05410  1.0000
  H   H62       1.0  0.64991  0.24629  0.99499  1.0000
  H   H63       1.0  0.66843  0.41809  0.92914  1.0000
  H   H64       1.0  0.55725  0.22987  0.04958  1.0000
  H   H65       1.0  0.63022  0.43731  0.95204  1.0000
  H   H66       1.0  0.53967  0.17529  0.06210  1.0000
  C   C1        1.0  0.31463  0.67511  0.46531  1.0000
  C   C2        1.0  0.34329  0.65408  0.47593  1.0000
  C   C3        1.0  0.36543  0.70231  0.45118  1.0000
  C   C4        1.0  0.25875  0.65066  0.47879  1.0000
  C   C5        1.0  0.39695  0.75761  0.44982  1.0000
  C   C6        1.0  0.23561  0.65723  0.46827  1.0000
  C   C7        1.0  0.42435  0.77267  0.36892  1.0000
  C   C8        1.0  0.20527  0.63544  0.47962  1.0000
  C   C9        1.0  0.43363  0.80438  0.38405  1.0000
  C   C10       1.0  0.19754  0.60725  0.50618  1.0000
  C   C11       1.0  0.41557  0.82151  0.47917  1.0000
  C   C12       1.0  0.22114  0.60167  0.51987  1.0000
  C   C13       1.0  0.38808  0.80576  0.55754  1.0000
  C   C14       1.0  0.25170  0.62263  0.50256  1.0000
  C   C15       1.0  0.37852  0.77396  0.54567  1.0000
  C   C16       1.0  0.16592  0.58454  0.52523  1.0000
  C   C17       1.0  0.42965  0.58971  0.46391  1.0000
  C   C18       1.0  0.42609  0.85557  0.50124  1.0000
  C   C19       1.0  0.99522  0.49922  0.45756  1.0000
  C   C20       1.0  0.48671  0.48049  0.48639  1.0000
  C   C21       1.0  0.53338  0.02882  0.55383  1.0000
  C   C22       1.0  0.96312  0.48040  0.50194  1.0000
  C   C23       1.0  0.53917  0.06037  0.55145  1.0000
  C   C24       1.0  0.94377  0.49386  0.51900  1.0000
  C   C25       1.0  0.56984  0.08576  0.57961  1.0000
  C   C26       1.0  0.91276  0.47696  0.54176  1.0000
  C   C27       1.0  0.57788  0.11667  0.58792  1.0000
  C   C28       1.0  0.89978  0.44514  0.54045  1.0000
  C   C29       1.0  0.55540  0.12326  0.56553  1.0000
  C   C30       1.0  0.91927  0.43242  0.53173  1.0000
  C   C31       1.0  0.52470  0.09808  0.53972  1.0000
  C   C32       1.0  0.95069  0.44990  0.51292  1.0000
  C   C33       1.0  0.51676  0.06701  0.53091  1.0000
  C   C34       1.0  0.84899  0.42932  0.49646  1.0000
  C   C35       1.0  0.57735  0.42795  0.52883  1.0000
  C   C36       1.0  0.58845  0.17265  0.53578  1.0000
  C   C37       1.0  0.81614  0.40871  0.50132  1.0000
  C   C38       1.0  0.79547  0.41899  0.49652  1.0000
  C   C39       1.0  0.76391  0.39960  0.50162  1.0000
  C   C40       1.0  0.75326  0.36891  0.50620  1.0000
  C   C41       1.0  0.77343  0.35792  0.50874  1.0000
  C   C42       1.0  0.80461  0.37774  0.50698  1.0000
  C   C43       1.0  0.69714  0.34678  0.50583  1.0000
  C   C44       1.0  0.66898  0.36756  0.48641  1.0000
  C   C45       1.0  0.64610  0.31826  0.50148  1.0000
  C   C46       1.0  0.30265  0.65134  0.96664  1.0000
  C   C47       1.0  0.33018  0.62947  0.98216  1.0000
  C   C48       1.0  0.35359  0.67858  0.96511  1.0000
  C   C49       1.0  0.35387  0.59793  0.98793  1.0000
  C   C50       1.0  0.38525  0.73325  0.95903  1.0000
  C   C51       1.0  0.34466  0.56955  0.01509  1.0000
  C   C52       1.0  0.41167  0.74699  0.86674  1.0000
  C   C53       1.0  0.36590  0.55973  0.01047  1.0000
  C   C54       1.0  0.42080  0.77841  0.87803  1.0000
  C   C55       1.0  0.39682  0.57797  0.97715  1.0000
  C   C56       1.0  0.40362  0.79651  0.98093  1.0000
  C   C57       1.0  0.40538  0.60620  0.94973  1.0000
  C   C58       1.0  0.37685  0.78171  0.06806  1.0000
  C   C59       1.0  0.38436  0.61660  0.95466  1.0000
  C   C60       1.0  0.36737  0.75015  0.05888  1.0000
  C   C61       1.0  0.15038  0.57576  0.01802  1.0000
  C   C62       1.0  0.41963  0.56821  0.97235  1.0000
  C   C63       1.0  0.41401  0.83057  0.00382  1.0000
  C   C64       1.0  0.10023  0.56530  0.98921  1.0000
  C   C65       1.0  0.08328  0.57894  0.97404  1.0000
  C   C66       1.0  0.05155  0.56434  0.98502  1.0000
  C   C67       1.0  0.03582  0.53487  0.01003  1.0000
  C   C68       1.0  0.05251  0.52062  0.02192  1.0000
  C   C69       1.0  0.08406  0.53550  0.01223  1.0000
  C   C70       1.0  0.98104  0.52154  0.99087  1.0000
  C   C71       1.0  0.48096  0.46230  0.99692  1.0000
  C   C72       1.0  0.51845  0.00322  0.04423  1.0000
  C   C73       1.0  0.94957  0.49696  0.01676  1.0000
  C   C74       1.0  0.52449  0.03485  0.04191  1.0000
  C   C75       1.0  0.92500  0.50292  0.02537  1.0000
  C   C76       1.0  0.55470  0.06154  0.09214  1.0000
  C   C77       1.0  0.89518  0.48037  0.04240  1.0000
  C   C78       1.0  0.56314  0.09256  0.10059  1.0000
  C   C79       1.0  0.88898  0.45076  0.04890  1.0000
  C   C80       1.0  0.54166  0.09813  0.05673  1.0000
  C   C81       1.0  0.91365  0.44538  0.04673  1.0000
  C   C82       1.0  0.51129  0.07149  0.00810  1.0000
  C   C83       1.0  0.94331  0.46775  0.02757  1.0000
  C   C84       1.0  0.50291  0.04031  0.99900  1.0000
  C   C85       1.0  0.83640  0.42035  0.98419  1.0000
  C   C86       1.0  0.57043  0.40870  0.03699  1.0000
  C   C87       1.0  0.57581  0.14807  0.03498  1.0000
  C   C88       1.0  0.59334  0.39859  0.02141  1.0000
  C   C89       1.0  0.58492  0.18024  0.03684  1.0000
  C   C90       1.0  0.58493  0.37056  0.05040  1.0000
  C   C91       1.0  0.61580  0.20036  0.01560  1.0000
  C   C92       1.0  0.60559  0.35897  0.03331  1.0000
  C   C93       1.0  0.62599  0.23079  0.00924  1.0000
  C   C94       1.0  0.63560  0.37673  0.99009  1.0000
  C   C95       1.0  0.60437  0.24099  0.02274  1.0000
  C   C96       1.0  0.64476  0.40502  0.96191  1.0000
  C   C97       1.0  0.57333  0.22122  0.04251  1.0000
  C   C98       1.0  0.62372  0.41564  0.97489  1.0000
  C   C99       1.0  0.56369  0.19116  0.04945  1.0000
  C   C100      1.0  0.68781  0.32397  0.00371  1.0000
  C   C101      1.0  0.65889  0.34446  0.99001  1.0000
  C   C102      1.0  0.63680  0.29557  0.00871  1.0000
  N   N1        1.0  0.33909  0.70202  0.45045  1.0000
  N   N2        1.0  0.31512  0.65059  0.47857  1.0000
  N   N3        1.0  0.36934  0.67899  0.46189  1.0000
  N   N4        1.0  0.14338  0.58298  0.46516  1.0000
  N   N5        1.0  0.42129  0.56511  0.50342  1.0000
  N   N6        1.0  0.45344  0.87211  0.45668  1.0000
  N   N7        1.0  0.01855  0.50080  0.52723  1.0000
  N   N8        1.0  0.49478  0.50962  0.47342  1.0000
  N   N9        1.0  0.50375  0.00227  0.50419  1.0000
  N   N10       1.0  0.86829  0.42515  0.54905  1.0000
  N   N11       1.0  0.58211  0.45187  0.49221  1.0000
  N   N12       1.0  0.56134  0.15359  0.57046  1.0000
  N   N13       1.0  0.67235  0.31944  0.51313  1.0000
  N   N14       1.0  0.69735  0.37196  0.49470  1.0000
  N   N15       1.0  0.64269  0.34130  0.48476  1.0000
  N   N16       1.0  0.32767  0.67816  0.95491  1.0000
  N   N17       1.0  0.30201  0.62599  0.97856  1.0000
  N   N18       1.0  0.35667  0.65527  0.98052  1.0000
  N   N19       1.0  0.13203  0.58251  0.97698  1.0000
  N   N20       1.0  0.41216  0.54286  0.00317  1.0000
  N   N21       1.0  0.44019  0.84617  0.94364  1.0000
  N   N22       1.0  0.00397  0.51768  0.02506  1.0000
  N   N23       1.0  0.48863  0.49082  0.97911  1.0000
  N   N24       1.0  0.48836  0.97749  0.00837  1.0000
  N   N25       1.0  0.85967  0.42629  0.06316  1.0000
  N   N26       1.0  0.57529  0.43097  0.98575  1.0000
  N   N27       1.0  0.54820  0.12875  0.06258  1.0000
  N   N28       1.0  0.66335  0.29649  0.01308  1.0000
  N   N29       1.0  0.68717  0.34855  0.99180  1.0000
  N   N30       1.0  0.63288  0.31899  0.99850  1.0000
  O   O1        1.0  0.28802  0.67515  0.46448  1.0000
  O   O2        1.0  0.34214  0.62848  0.49147  1.0000
  O   O3        1.0  0.39231  0.72708  0.43540  1.0000
  O   O4        1.0  0.72292  0.34576  0.51192  1.0000
  O   O5        1.0  0.66979  0.39363  0.47688  1.0000
  O   O6        1.0  0.61898  0.29285  0.50864  1.0000
  O   O7        1.0  0.00019  0.51331  0.35686  1.0000
  O   O8        1.0  0.46016  0.46051  0.49805  1.0000
  O   O9        1.0  0.55399  0.02746  0.60116  1.0000
  O   O10       1.0  0.27707  0.65308  0.96469  1.0000
  O   O11       1.0  0.32904  0.60322  0.99066  1.0000
  O   O12       1.0  0.38095  0.70365  0.95573  1.0000
  O   O13       1.0  0.71456  0.32453  0.00932  1.0000
  O   O14       1.0  0.65991  0.37019  0.97525  1.0000
  O   O15       1.0  0.60978  0.27022  0.01667  1.0000
  O   O16       1.0  0.98537  0.54206  0.93641  1.0000
  O   O17       1.0  0.45454  0.44312  0.01813  1.0000
  O   O18       1.0  0.53928  0.00109  0.08325  1.0000
  C   C103      1.0  0.49643  0.92680  0.01556  1.0000
  C   C104      1.0  0.48879  0.02683  0.99531  1.0000
  C  Sn1       1.0  0.45712  0.01013  0.96413  1.0000
  C  Sn2       1.0  0.43933  0.97713  0.95314  1.0000
  C   C105      1.0  0.45370  0.96168  0.97372  1.0000
  C   C106      1.0  0.47891  0.89426  0.00481  1.0000
  H   H67       1.0  0.52096  0.93992  0.03972  1.0000
  O  Te1       1.0  0.44335  0.02615  0.94414  1.0000
  O  Te2       1.0  0.40764  0.95987  0.92216  1.0000
  H   H68       1.0  0.48985  0.88213  0.02061  1.0000
  Mg  Mg1       1.0  0.39943  0.99229  0.90388  1.0000
  C   C107      1.0  0.35756  0.58667  0.50703  1.0000
  C   C108      1.0  0.36295  0.61566  0.49927  1.0000
  C  Sn3       1.0  0.39232  0.63740  0.46925  1.0000
  C  Sn4       1.0  0.41671  0.62992  0.44656  1.0000
  C   C109      1.0  0.41108  0.60085  0.45441  1.0000
  C   C110      1.0  0.38160  0.57927  0.48458  1.0000
  H   H69       1.0  0.33475  0.56996  0.53027  1.0000
  O  Te3       1.0  0.39730  0.66626  0.46197  1.0000
  O  Te4       1.0  0.44628  0.65122  0.41630  1.0000
  H   H70       1.0  0.37743  0.55682  0.49045  1.0000
  Mg  Mg2       1.0  0.44161  0.68750  0.41766  1.0000
  C   C111      1.0  0.63901  0.24939  0.50967  1.0000
  C   C112      1.0  0.62069  0.26233  0.50636  1.0000
  C  Sn5       1.0  0.58919  0.24614  0.52748  1.0000
  C  Sn6       1.0  0.57585  0.21647  0.55242  1.0000
  C   C113      1.0  0.59437  0.20374  0.55567  1.0000
  C   C114      1.0  0.62587  0.22013  0.53434  1.0000
  H   H71       1.0  0.66338  0.26208  0.49327  1.0000
  O  Te5       1.0  0.57123  0.25940  0.52375  1.0000
  O  Te6       1.0  0.54442  0.19980  0.57394  1.0000
  H   H72       1.0  0.64004  0.21012  0.53704  1.0000
  Mg  Mg3       1.0  0.52950  0.22763  0.55900  1.0000
  C   C115      1.0  0.50655  0.43953  0.50850  1.0000
  C   C116      1.0  0.51053  0.46812  0.50215  1.0000
  C  Sn7       1.0  0.53965  0.49180  0.48313  1.0000
  C  Sn8       1.0  0.56522  0.48670  0.47021  1.0000
  C   C117      1.0  0.56099  0.45802  0.47657  1.0000
  C   C118      1.0  0.53175  0.43448  0.49569  1.0000
  H   H73       1.0  0.48393  0.42131  0.52319  1.0000
  O  Te7       1.0  0.54323  0.52022  0.47709  1.0000
  O  Te8       1.0  0.59457  0.50997  0.45105  1.0000
  H   H74       1.0  0.52867  0.41234  0.50048  1.0000
  Mg  Mg4       1.0  0.58778  0.54474  0.44967  1.0000
  C   C119      1.0  0.47218  0.54725  0.95866  1.0000
  C   C120      1.0  0.44061  0.53512  0.97576  1.0000
  C  Sn9       1.0  0.41638  0.42252  0.00995  1.0000
  C  Sn10      1.0  0.43059  0.40617  0.02732  1.0000
  C   C121      1.0  0.46219  0.41852  0.01012  1.0000
  C   C122      1.0  0.48622  0.53115  0.97585  1.0000
  H   H75       1.0  0.48575  0.56914  0.93225  1.0000
  O  Te9       1.0  0.38486  0.41072  0.02658  1.0000
  O  Te10      1.0  0.41341  0.37790  0.06155  1.0000
  H   H76       1.0  0.51066  0.54055  0.96274  1.0000
  Mg  Mg5       1.0  0.37121  0.37134  0.07319  1.0000
  C   C123      1.0  0.45321  0.93945  0.43956  1.0000
  C   C124      1.0  0.48309  0.96607  0.49839  1.0000
  C  Sn11      1.0  0.50485  0.96106  0.54109  1.0000
  C  Sn12      1.0  0.49646  0.92876  0.52440  1.0000
  C   C125      1.0  0.46651  0.90228  0.46529  1.0000
  C   C126      1.0  0.44492  0.90759  0.42299  1.0000
  H   H77       1.0  0.43651  0.94355  0.40672  1.0000
  O  Te11      1.0  0.53460  0.98793  0.59974  1.0000
  O  Te12      1.0  0.51775  0.92304  0.56611  1.0000
  H   H78       1.0  0.42178  0.88696  0.37732  1.0000
  Mg  Mg6       1.0  0.55544  0.96762  0.64051  1.0000
  C   C127      1.0  0.42791  0.51646  0.52031  1.0000
  C   C128      1.0  0.43775  0.54698  0.51548  1.0000
  C  Sn13      1.0  0.46835  0.56559  0.48432  1.0000
  C  Sn14      1.0  0.48943  0.55334  0.45748  1.0000
  C   C129      1.0  0.47934  0.52276  0.46243  1.0000
  C   C130      1.0  0.44867  0.50435  0.49378  1.0000
  H   H79       1.0  0.40418  0.50220  0.54446  1.0000
  O  Te13      1.0  0.47781  0.59605  0.48000  1.0000
  O  Te14      1.0  0.52013  0.57143  0.42601  1.0000
  H   H80       1.0  0.44105  0.48070  0.49739  1.0000
  Mg  Mg7       1.0  0.52201  0.61158  0.43252  1.0000
  C   C131      1.0  0.09626  0.52307  0.49623  1.0000
  C   C132      1.0  0.11095  0.55280  0.47547  1.0000
  C  Sn15      1.0  0.09432  0.56822  0.48139  1.0000
  C  Sn16      1.0  0.06239  0.55355  0.50866  1.0000
  C   C133      1.0  0.04791  0.52382  0.52942  1.0000
  C   C134      1.0  0.06477  0.50860  0.52322  1.0000
  H   H81       1.0  0.10931  0.51130  0.49154  1.0000
  O  Te15      1.0  0.10935  0.59791  0.46033  1.0000
  O  Te16      1.0  0.04522  0.56845  0.51522  1.0000
  H   H82       1.0  0.05340  0.48559  0.53942  1.0000
  Mg  Mg8       1.0  0.07606  0.60873  0.47941  1.0000
  C   C135      1.0  0.59504  0.38428  0.53756  1.0000
  C   C136      1.0  0.59910  0.41317  0.53444  1.0000
  C  Sn17      1.0  0.62761  0.43493  0.49545  1.0000
  C  Sn18      1.0  0.65246  0.42756  0.45891  1.0000
  C   C137      1.0  0.64815  0.39858  0.46222  1.0000
  C   C138      1.0  0.61954  0.37699  0.50146  1.0000
  H   H83       1.0  0.57289  0.36756  0.56781  1.0000
  O  Te17      1.0  0.63128  0.46369  0.49297  1.0000
  O  Te18      1.0  0.68119  0.44887  0.41947  1.0000
  H   H84       1.0  0.61639  0.35461  0.50374  1.0000
  Mg  Mg9       1.0  0.67482  0.48500  0.43223  1.0000
  C   C139      1.0  0.77570  0.34771  0.02955  1.0000
  C   C140      1.0  0.74911  0.34844  0.01663  1.0000
  C  Sn19      1.0  0.75735  0.45785  0.98304  1.0000
  C  Sn20      1.0  0.78628  0.48259  0.96199  1.0000
  C   C141      1.0  0.81274  0.48162  0.97501  1.0000
  C   C142      1.0  0.80424  0.37208  0.00873  1.0000
  H   H85       1.0  0.77415  0.32822  0.05552  1.0000
  O  Te19      1.0  0.73055  0.45822  0.97062  1.0000
  O  Te20      1.0  0.78867  0.50790  0.92825  1.0000
  H   H86       1.0  0.82483  0.37151  0.01859  1.0000
  Mg  Mg10      1.0  0.74562  0.49779  0.92302  1.0000
  C   C143      1.0  0.21117  0.58397  0.00397  1.0000
  C   C144      1.0  0.18823  0.59246  0.01842  1.0000
  C  Sn21      1.0  0.19522  0.62131  0.00341  1.0000
  C  Sn22      1.0  0.23226  0.72635  0.97331  1.0000
  C   C145      1.0  0.25504  0.71763  0.95891  1.0000
  C   C146      1.0  0.24779  0.68871  0.97422  1.0000
  H   H87       1.0  0.20556  0.56158  0.01570  1.0000
  O  Te21      1.0  0.17203  0.62943  0.01825  1.0000
  O  Te22      1.0  0.23988  0.75533  0.95770  1.0000
  H   H88       1.0  0.26555  0.68213  0.96289  1.0000
  Mg  Mg11      1.0  0.20027  0.75583  0.98758  1.0000
  C   C147      1.0  0.50014  0.41935  0.00009  1.0000
  C   C148      1.0  0.50454  0.44919  0.00713  1.0000
  C  Sn23      1.0  0.54033  0.55765  0.99367  1.0000
  C  Sn24      1.0  0.56564  0.55169  0.97273  1.0000
  C   C149      1.0  0.56099  0.52175  0.96570  1.0000
  C   C150      1.0  0.53159  0.49781  0.97936  1.0000
  H   H89       1.0  0.47739  0.40082  0.01056  1.0000
  O  Te23      1.0  0.53782  0.50297  0.00102  1.0000
  O  Te24      1.0  0.59516  0.57534  0.95887  1.0000
  H   H90       1.0  0.52819  0.47470  0.97378  1.0000
  Mg  Mg12      1.0  0.58896  0.61192  0.97627  1.0000
