data_image0
_chemical_formula_structural       H50C78N30O18C2Sn2C2HTe2HMgC2Sn2C2HTe2HMgC2Sn2C2HTe2HMgC2Sn2C2HTe2HMgC2Sn2C2HTe2HMgC2Sn2C2HTe2HMgC2Sn2C2HTe2HMgC2Sn2C2HTe2HMgC2Sn2C2HTe2HMgC2Sn2C2HTe2HMg
_chemical_formula_sum              "H70 C118 N30 O18 Sn20 Te20 Mg10"
_cell_length_a       49.592
_cell_length_b       49.7162
_cell_length_c       5.83106
_cell_angle_alpha    89.129
_cell_angle_beta     90.6937
_cell_angle_gamma    120.06

_symmetry_space_group_name_H-M    'P1'
_space_group_IT_number       1

loop_
  _space_group_symop_operation_xyz
  'x, y, z'

loop_
  _atom_site_type_symbol
  _atom_site_label
  _atom_site_symmetry_multiplicity
  _atom_site_fract_x
  _atom_site_fract_y
  _atom_site_fract_z
  _atom_site_occupancy
  H   H1        1.0  0.47902  0.56812  0.48396  1.0000
  H   H2        1.0  0.44509  0.91934  0.52380  1.0000
  H   H3        1.0  0.08687  0.51950  0.47534  1.0000
  H   H4        1.0  0.45716  0.59138  0.51380  1.0000
  H   H5        1.0  0.41258  0.87154  0.53819  1.0000
  H   H6        1.0  0.13403  0.54122  0.44657  1.0000
  H   H7        1.0  0.53916  0.41255  0.50340  1.0000
  H   H8        1.0  0.58706  0.12614  0.52961  1.0000
  H   H9        1.0  0.87358  0.45969  0.46786  1.0000
  H   H10       1.0  0.19010  0.56518  0.52420  1.0000
  H   H11       1.0  0.24366  0.60921  0.55936  1.0000
  H   H12       1.0  0.20712  0.67076  0.46316  1.0000
  H   H13       1.0  0.15188  0.62526  0.47167  1.0000
  H   H14       1.0  0.56897  0.51733  0.02442  1.0000
  H   H15       1.0  0.94838  0.43094  0.97215  1.0000
  H   H16       1.0  0.52438  0.52490  0.01997  1.0000
  H   H17       1.0  0.00367  0.47683  0.98292  1.0000
  H   H18       1.0  0.46234  0.42876  0.96977  1.0000
  H   H19       1.0  0.96868  0.53919  0.98672  1.0000
  H   H20       1.0  0.50557  0.41863  0.98647  1.0000
  H   H21       1.0  0.91441  0.49630  0.97196  1.0000
  H   H22       1.0  0.47291  0.55665  0.98412  1.0000
  H   H23       1.0  0.43515  0.91383  0.03428  1.0000
  H   H24       1.0  0.08632  0.52501  0.97713  1.0000
  H   H25       1.0  0.45573  0.58779  0.96881  1.0000
  H   H26       1.0  0.40990  0.86949  0.98498  1.0000
  H   H27       1.0  0.13207  0.54440  0.97719  1.0000
  H   H28       1.0  0.54040  0.41488  0.00948  1.0000
  H   H29       1.0  0.58863  0.12767  0.97230  1.0000
  H   H30       1.0  0.87494  0.46024  0.02979  1.0000
  H   H31       1.0  0.55768  0.38182  0.03493  1.0000
  H   H32       1.0  0.82199  0.44181  0.99485  1.0000
  H   H33       1.0  0.59989  0.36654  0.06528  1.0000
  H   H34       1.0  0.76547  0.39855  0.00350  1.0000
  H   H35       1.0  0.66729  0.46133  0.95705  1.0000
  H   H36       1.0  0.79671  0.33227  0.96259  1.0000
  H   H37       1.0  0.62732  0.47602  0.97584  1.0000
  H   H38       1.0  0.85194  0.37533  0.97415  1.0000
  H   H39       1.0  0.43500  0.62202  0.00728  1.0000
  H   H40       1.0  0.37762  0.81590  0.98262  1.0000
  H   H41       1.0  0.18659  0.56509  0.97983  1.0000
  H   H42       1.0  0.39025  0.63304  0.01126  1.0000
  H   H43       1.0  0.36582  0.76058  0.99976  1.0000
  H   H44       1.0  0.24135  0.60751  0.96095  1.0000
  H   H45       1.0  0.32650  0.53407  0.05046  1.0000
  H   H46       1.0  0.46429  0.79473  0.03507  1.0000
  H   H47       1.0  0.21043  0.67342  0.03743  1.0000
  H   H48       1.0  0.37019  0.52439  0.01972  1.0000
  H   H49       1.0  0.47527  0.84906  0.04599  1.0000
  H   H50       1.0  0.15438  0.62955  0.01295  1.0000
  C   C1        1.0  0.46252  0.48109  0.37709  1.0000
  C   C2        1.0  0.52436  0.98463  0.60450  1.0000
  C   C3        1.0  0.01576  0.53930  0.60845  1.0000
  C   C4        1.0  0.43445  0.56974  0.52066  1.0000
  C   C5        1.0  0.43162  0.86695  0.50250  1.0000
  C   C6        1.0  0.13573  0.56370  0.48276  1.0000
  C   C7        1.0  0.56237  0.43342  0.52003  1.0000
  C   C8        1.0  0.56590  0.12835  0.50777  1.0000
  C   C9        1.0  0.87145  0.43670  0.47290  1.0000
  C   C10       1.0  0.16611  0.59103  0.50684  1.0000
  C   C11       1.0  0.66986  0.36027  0.63112  1.0000
  C   C12       1.0  0.64092  0.31746  0.51399  1.0000
  C   C13       1.0  0.68607  0.33945  0.37328  1.0000
  C   C14       1.0  0.19125  0.58530  0.61519  1.0000
  C   C15       1.0  0.22543  0.61405  0.61365  1.0000
  C   C16       1.0  0.23046  0.64478  0.51356  1.0000
  C   C17       1.0  0.20256  0.64695  0.46355  1.0000
  C   C18       1.0  0.17138  0.62086  0.47983  1.0000
  C   C19       1.0  0.32578  0.63909  0.34395  1.0000
  C   C20       1.0  0.36190  0.68160  0.52246  1.0000
  C   C21       1.0  0.31515  0.67167  0.53201  1.0000
  C   C22       1.0  0.54788  0.49844  0.10267  1.0000
  C   C23       1.0  0.95167  0.45276  0.91209  1.0000
  C   C24       1.0  0.51992  0.50450  0.11314  1.0000
  C   C25       1.0  0.98565  0.48111  0.89895  1.0000
  C   C26       1.0  0.48918  0.47707  0.03860  1.0000
  C   C27       1.0  0.98953  0.51155  0.97139  1.0000
  C   C28       1.0  0.48617  0.44857  0.98240  1.0000
  C   C29       1.0  0.96414  0.51530  0.98503  1.0000
  C   C30       1.0  0.51096  0.44279  0.97490  1.0000
  C   C31       1.0  0.93265  0.49079  0.94661  1.0000
  C   C32       1.0  0.54275  0.46775  0.00748  1.0000
  C   C33       1.0  0.92517  0.45851  0.97155  1.0000
  C   C34       1.0  0.46008  0.47556  0.11748  1.0000
  C   C35       1.0  0.51835  0.98171  0.87605  1.0000
  C   C36       1.0  0.01900  0.53779  0.87668  1.0000
  C   C37       1.0  0.43243  0.56758  0.99732  1.0000
  C   C38       1.0  0.43076  0.86686  0.98549  1.0000
  C   C39       1.0  0.13515  0.56770  0.99926  1.0000
  C   C40       1.0  0.56368  0.43540  0.98425  1.0000
  C   C41       1.0  0.56698  0.12885  0.99814  1.0000
  C   C42       1.0  0.87227  0.43695  0.02813  1.0000
  C   C43       1.0  0.58883  0.42958  0.97765  1.0000
  C   C44       1.0  0.84113  0.41200  0.98104  1.0000
  C   C45       1.0  0.58240  0.39975  0.03174  1.0000
  C   C46       1.0  0.81660  0.41766  0.98957  1.0000
  C   C47       1.0  0.60641  0.39076  0.11232  1.0000
  C   C48       1.0  0.78411  0.39344  0.97177  1.0000
  C   C49       1.0  0.63849  0.41281  0.00286  1.0000
  C   C50       1.0  0.77590  0.36090  0.97480  1.0000
  C   C51       1.0  0.64455  0.44372  0.89542  1.0000
  C   C52       1.0  0.80100  0.35448  0.88828  1.0000
  C   C53       1.0  0.61983  0.45424  0.88278  1.0000
  C   C54       1.0  0.83619  0.38145  0.87616  1.0000
  C   C55       1.0  0.40683  0.57281  0.02743  1.0000
  C   C56       1.0  0.42640  0.83642  0.02279  1.0000
  C   C57       1.0  0.16582  0.59380  0.97098  1.0000
  C   C58       1.0  0.67278  0.35420  0.87048  1.0000
  C   C59       1.0  0.64586  0.30932  0.02356  1.0000
  C   C60       1.0  0.68970  0.33451  0.14319  1.0000
  C   C61       1.0  0.41142  0.60253  0.02340  1.0000
  C   C62       1.0  0.39685  0.81162  0.00670  1.0000
  C   C63       1.0  0.18990  0.58573  0.87783  1.0000
  C   C64       1.0  0.38618  0.60955  0.04866  1.0000
  C   C65       1.0  0.38935  0.77950  0.03903  1.0000
  C   C66       1.0  0.22434  0.61355  0.89317  1.0000
  C   C67       1.0  0.35390  0.58354  0.02489  1.0000
  C   C68       1.0  0.41497  0.77289  0.02488  1.0000
  C   C69       1.0  0.23134  0.64495  0.98313  1.0000
  C   C70       1.0  0.34895  0.55273  0.11946  1.0000
  C   C71       1.0  0.44627  0.79809  0.11506  1.0000
  C   C72       1.0  0.20506  0.64933  0.03118  1.0000
  C   C73       1.0  0.37664  0.54566  0.12405  1.0000
  C   C74       1.0  0.45200  0.83159  0.11324  1.0000
  C   C75       1.0  0.17326  0.62427  0.00267  1.0000
  C   C76       1.0  0.31719  0.62402  0.12230  1.0000
  C   C77       1.0  0.35634  0.68767  0.98493  1.0000
  C   C78       1.0  0.30244  0.65920  0.02534  1.0000
  N   N1        1.0  0.56552  0.46211  0.48972  1.0000
  N   N2        1.0  0.53757  0.10387  0.48771  1.0000
  N   N3        1.0  0.89675  0.43332  0.51194  1.0000
  N   N4        1.0  0.46176  0.54475  0.51633  1.0000
  N   N5        1.0  0.46582  0.91937  0.48570  1.0000
  N   N6        1.0  0.08276  0.53758  0.52014  1.0000
  N   N7        1.0  0.43481  0.54269  0.52933  1.0000
  N   N8        1.0  0.46082  0.89147  0.46865  1.0000
  N   N9        1.0  0.10872  0.56359  0.52412  1.0000
  N   N10       1.0  0.63810  0.34169  0.53853  1.0000
  N   N11       1.0  0.66142  0.31040  0.48484  1.0000
  N   N12       1.0  0.69266  0.36541  0.48133  1.0000
  N   N13       1.0  0.35501  0.65565  0.42729  1.0000
  N   N14       1.0  0.34414  0.69559  0.55621  1.0000
  N   N15       1.0  0.30346  0.64474  0.44006  1.0000
  N   N16       1.0  0.56763  0.46459  0.99631  1.0000
  N   N17       1.0  0.53909  0.10395  0.00638  1.0000
  N   N18       1.0  0.89759  0.43348  0.99710  1.0000
  N   N19       1.0  0.45280  0.53539  0.02478  1.0000
  N   N20       1.0  0.45770  0.91910  0.98494  1.0000
  N   N21       1.0  0.08257  0.54318  0.02690  1.0000
  N   N22       1.0  0.42876  0.53878  0.03245  1.0000
  N   N23       1.0  0.45848  0.89362  0.96896  1.0000
  N   N24       1.0  0.10856  0.56881  0.03699  1.0000
  N   N25       1.0  0.64196  0.33180  0.97248  1.0000
  N   N26       1.0  0.66790  0.30319  0.05255  1.0000
  N   N27       1.0  0.69737  0.35740  0.98244  1.0000
  N   N28       1.0  0.37779  0.68586  0.93120  1.0000
  N   N29       1.0  0.32843  0.68429  0.03112  1.0000
  N   N30       1.0  0.30006  0.62657  0.97431  1.0000
  O   O1        1.0  0.66303  0.41171  0.49357  1.0000
  O   O2        1.0  0.58863  0.25023  0.51040  1.0000
  O   O3        1.0  0.74815  0.34015  0.48832  1.0000
  O   O4        1.0  0.33057  0.58559  0.51331  1.0000
  O   O5        1.0  0.40966  0.74583  0.51722  1.0000
  O   O6        1.0  0.25659  0.66776  0.49787  1.0000
  O   O7        1.0  0.44314  0.48312  0.50727  1.0000
  O   O8        1.0  0.53658  0.97220  0.50578  1.0000
  O   O9        1.0  0.02935  0.56487  0.49950  1.0000
  O   O10       1.0  0.65948  0.40690  0.01095  1.0000
  O   O11       1.0  0.58765  0.25089  0.99705  1.0000
  O   O12       1.0  0.74985  0.33855  0.01475  1.0000
  O   O13       1.0  0.33094  0.58611  0.98272  1.0000
  O   O14       1.0  0.41102  0.74732  0.98073  1.0000
  O   O15       1.0  0.25859  0.66678  0.98730  1.0000
  O   O16       1.0  0.43482  0.46243  0.00742  1.0000
  O   O17       1.0  0.51729  0.95973  0.00074  1.0000
  O   O18       1.0  0.03958  0.55947  0.99182  1.0000
  C   C79       1.0  0.56153  0.06276  0.59381  1.0000
  C   C80       1.0  0.54005  0.07296  0.61390  1.0000
  C  Sn1       1.0  0.50810  0.05166  0.60812  1.0000
  C  Sn2       1.0  0.49753  0.01955  0.58178  1.0000
  C   C81       1.0  0.51921  0.00958  0.56198  1.0000
  C   C82       1.0  0.55113  0.03109  0.56791  1.0000
  H   H51       1.0  0.58623  0.07940  0.59852  1.0000
  O  Te1       1.0  0.48695  0.06225  0.62835  1.0000
  O  Te2       1.0  0.96789  0.99776  0.57553  1.0000
  H   H52       1.0  0.56776  0.02318  0.55249  1.0000
  Mg  Mg1       1.0  0.44598  0.02358  0.60990  1.0000
  C   C83       1.0  0.38515  0.78415  0.46047  1.0000
  C   C84       1.0  0.40593  0.77342  0.42352  1.0000
  C  Sn3       1.0  0.43798  0.79429  0.41640  1.0000
  C  Sn4       1.0  0.44935  0.82648  0.44696  1.0000
  C   C85       1.0  0.42837  0.83698  0.48399  1.0000
  C   C86       1.0  0.39635  0.81590  0.49072  1.0000
  H   H53       1.0  0.36038  0.76784  0.46581  1.0000
  O  Te3       1.0  0.45842  0.78318  0.37923  1.0000
  O  Te4       1.0  0.48127  0.84784  0.44073  1.0000
  H   H54       1.0  0.38027  0.82421  0.51948  1.0000
  Mg  Mg2       1.0  0.49986  0.82139  0.38503  1.0000
  C   C87       1.0  0.36856  0.54227  0.38571  1.0000
  C   C88       1.0  0.40046  0.56362  0.39920  1.0000
  C  Sn5       1.0  0.41108  0.59547  0.40610  1.0000
  C  Sn6       1.0  0.38931  0.60607  0.39941  1.0000
  C   C89       1.0  0.35744  0.58452  0.38608  1.0000
  C   C90       1.0  0.34706  0.55270  0.37920  1.0000
  H   H55       1.0  0.36052  0.51765  0.38051  1.0000
  O  Te5       1.0  0.44303  0.61649  0.41949  1.0000
  O  Te6       1.0  0.39929  0.63777  0.40616  1.0000
  H   H56       1.0  0.32236  0.53618  0.36890  1.0000
  Mg  Mg3       1.0  0.44521  0.65736  0.42431  1.0000
  C   C91       1.0  0.54719  0.18969  0.10386  1.0000
  C   C92       1.0  0.57573  0.21747  0.10471  1.0000
  C  Sn7       1.0  0.60360  0.21703  0.08909  1.0000
  C  Sn8       1.0  0.60280  0.18820  0.07227  1.0000
  C   C93       1.0  0.57413  0.16053  0.07139  1.0000
  C   C94       1.0  0.54638  0.16124  0.08718  1.0000
  H   H57       1.0  0.52572  0.19023  0.11595  1.0000
  O  Te7       1.0  0.63191  0.24501  0.09027  1.0000
  O  Te8       1.0  0.63030  0.18709  0.05636  1.0000
  H   H58       1.0  0.52429  0.13972  0.08637  1.0000
  Mg  Mg4       1.0  0.66311  0.23145  0.06493  1.0000
  C   C95       1.0  0.54550  0.50379  0.37776  1.0000
  C   C96       1.0  0.54449  0.47528  0.40052  1.0000
  C  Sn9       1.0  0.51588  0.44765  0.41271  1.0000
  C  Sn10      1.0  0.48780  0.44865  0.40180  1.0000
  C   C97       1.0  0.48906  0.47729  0.37886  1.0000
  C   C98       1.0  0.51781  0.50480  0.36690  1.0000
  H   H59       1.0  0.56774  0.52507  0.36838  1.0000
  O  Te9       1.0  0.51529  0.41936  0.43553  1.0000
  O  Te10      1.0  0.45889  0.42139  0.41350  1.0000
  H   H60       1.0  0.51859  0.52687  0.34913  1.0000
  Mg  Mg5       1.0  0.47018  0.38852  0.44436  1.0000
  C   C99       1.0  0.82967  0.37249  0.62095  1.0000
  C   C100      1.0  0.84123  0.40432  0.58860  1.0000
  C  Sn11      1.0  0.82090  0.41610  0.58001  1.0000
  C  Sn12      1.0  0.78839  0.39557  0.60437  1.0000
  C   C101      1.0  0.77705  0.36377  0.63682  1.0000
  C   C102      1.0  0.79761  0.35223  0.64508  1.0000
  H   H61       1.0  0.84557  0.36356  0.62746  1.0000
  O  Te11      1.0  0.83285  0.44796  0.54749  1.0000
  O  Te12      1.0  0.76755  0.40673  0.59654  1.0000
  H   H62       1.0  0.78865  0.32759  0.67027  1.0000
  Mg  Mg6       1.0  0.79509  0.45201  0.54882  1.0000
  C   C103      1.0  0.49210  0.02440  0.00199  1.0000
  C   C104      1.0  0.51257  0.01141  0.95188  1.0000
  C  Sn13      1.0  0.54465  0.03160  0.93225  1.0000
  C  Sn14      1.0  0.55709  0.06395  0.96352  1.0000
  C   C105      1.0  0.53642  0.07672  0.01376  1.0000
  C   C106      1.0  0.50436  0.05630  0.03295  1.0000
  H   H63       1.0  0.46730  0.00860  0.01696  1.0000
  O  Te13      1.0  0.56406  0.01966  0.88201  1.0000
  O  Te14      1.0  0.58906  0.08465  0.94495  1.0000
  H   H64       1.0  0.48907  0.06526  0.07190  1.0000
  Mg  Mg7       1.0  0.60602  0.05718  0.87397  1.0000
  C   C107      1.0  0.58591  0.39325  0.46968  1.0000
  C   C108      1.0  0.58709  0.42100  0.52744  1.0000
  C  Sn15      1.0  0.61579  0.44809  0.55819  1.0000
  C  Sn16      1.0  0.64377  0.44731  0.53040  1.0000
  C   C109      1.0  0.64233  0.41943  0.47244  1.0000
  C   C110      1.0  0.61350  0.39246  0.44215  1.0000
  H   H65       1.0  0.56360  0.37238  0.44612  1.0000
  O  Te15      1.0  0.61655  0.47561  0.61596  1.0000
  O  Te16      1.0  0.67276  0.47404  0.56003  1.0000
  H   H66       1.0  0.61258  0.37098  0.39728  1.0000
  Mg  Mg8       1.0  0.66172  0.50594  0.63817  1.0000
  C   C111      1.0  0.95334  0.51189  0.50629  1.0000
  C   C112      1.0  0.98145  0.51176  0.51491  1.0000
  C  Sn17      1.0  0.98143  0.48368  0.53006  1.0000
  C  Sn18      1.0  0.95270  0.45523  0.53662  1.0000
  C   C113      1.0  0.92470  0.45560  0.52774  1.0000
  C   C114      1.0  0.92499  0.48384  0.51266  1.0000
  H   H67       1.0  0.95357  0.53373  0.49450  1.0000
  O  Te17      1.0  0.00973  0.48397  0.53859  1.0000
  O  Te18      1.0  0.95200  0.42683  0.55166  1.0000
  H   H68       1.0  0.90322  0.48393  0.50585  1.0000
  Mg  Mg9       1.0  0.99669  0.43928  0.55869  1.0000
  C   C115      1.0  0.60768  0.19314  0.51018  1.0000
  C   C116      1.0  0.57880  0.16574  0.50787  1.0000
  C  Sn19      1.0  0.55133  0.16698  0.48935  1.0000
  C  Sn20      1.0  0.55288  0.19623  0.47279  1.0000
  C   C117      1.0  0.58189  0.22350  0.47510  1.0000
  C   C118      1.0  0.60924  0.22199  0.49377  1.0000
  H   H69       1.0  0.62884  0.19198  0.52450  1.0000
  O  Te19      1.0  0.52266  0.13939  0.48739  1.0000
  O  Te20      1.0  0.52578  0.19814  0.45403  1.0000
  H   H70       1.0  0.63160  0.24321  0.49540  1.0000
  Mg  Mg10      1.0  0.49225  0.15404  0.45888  1.0000
