data_image0
_chemical_formula_structural       H66C102N30O18SnCSn2CSnTe4Mg2SnCSn2CSnTe4Mg2SnCSn2CSnTe4Mg2SnCSn2CSnTe4Mg2SnCSn2CSnTe4Mg2SnCSn2CSnTe4Mg2SnCSn2CSnTe4Mg2SnCSn2CSnTe4Mg2SnCSn2CSnTe4Mg2SnCSn2CSnTe4Mg2SnCSn2CSnTe4Mg2SnCSn2CSnTe4Mg2
_chemical_formula_sum              "H66 C126 N30 O18 Sn48 Te48 Mg24"
_cell_length_a       50.7482
_cell_length_b       51.1313
_cell_length_c       7.97724
_cell_angle_alpha    121.32
_cell_angle_beta     76.5925
_cell_angle_gamma    120.352

_symmetry_space_group_name_H-M    'P1'
_space_group_IT_number       1

loop_
  _space_group_symop_operation_xyz
  'x, y, z'

loop_
  _atom_site_type_symbol
  _atom_site_label
  _atom_site_symmetry_multiplicity
  _atom_site_fract_x
  _atom_site_fract_y
  _atom_site_fract_z
  _atom_site_occupancy
  H   H1        1.0  0.33209  0.57957  0.52986  1.0000
  H   H2        1.0  0.43785  0.75891  0.29501  1.0000
  H   H3        1.0  0.36977  0.56071  0.52302  1.0000
  H   H4        1.0  0.45491  0.81671  0.32368  1.0000
  H   H5        1.0  0.44136  0.64371  0.42334  1.0000
  H   H6        1.0  0.37386  0.81872  0.63094  1.0000
  H   H7        1.0  0.40429  0.66307  0.43590  1.0000
  H   H8        1.0  0.35736  0.76206  0.60750  1.0000
  H   H9        1.0  0.16264  0.56969  0.59711  1.0000
  H   H10       1.0  0.45288  0.60319  0.42211  1.0000
  H   H11       1.0  0.41001  0.86654  0.56273  1.0000
  H   H12       1.0  0.50934  0.91854  0.54673  1.0000
  H   H13       1.0  0.53351  0.97699  0.57275  1.0000
  H   H14       1.0  0.44632  0.95572  0.41944  1.0000
  H   H15       1.0  0.42249  0.89845  0.39947  1.0000
  H   H16       1.0  0.01338  0.49113  0.62095  1.0000
  H   H17       1.0  0.51713  0.52296  0.45260  1.0000
  H   H18       1.0  0.48928  0.00516  0.45395  1.0000
  H   H19       1.0  0.95380  0.51792  0.51445  1.0000
  H   H20       1.0  0.58686  0.08039  0.59810  1.0000
  H   H21       1.0  0.89844  0.48831  0.55895  1.0000
  H   H22       1.0  0.60170  0.13621  0.61528  1.0000
  H   H23       1.0  0.90911  0.40834  0.53639  1.0000
  H   H24       1.0  0.50743  0.10333  0.52367  1.0000
  H   H25       1.0  0.96522  0.43908  0.50134  1.0000
  H   H26       1.0  0.49262  0.04846  0.51236  1.0000
  H   H27       1.0  0.85599  0.44754  0.44141  1.0000
  H   H28       1.0  0.55498  0.41226  0.56816  1.0000
  H   H29       1.0  0.60706  0.16563  0.49907  1.0000
  H   H30       1.0  0.80416  0.44263  0.48881  1.0000
  H   H31       1.0  0.74802  0.40760  0.49829  1.0000
  H   H32       1.0  0.76404  0.33408  0.51508  1.0000
  H   H33       1.0  0.82072  0.36994  0.51100  1.0000
  H   H34       1.0  0.23693  0.66619  0.96285  1.0000
  H   H35       1.0  0.18030  0.63335  0.98544  1.0000
  H   H36       1.0  0.19435  0.56077  0.02684  1.0000
  H   H37       1.0  0.25047  0.59298  0.00128  1.0000
  H   H38       1.0  0.14267  0.55650  0.06641  1.0000
  H   H39       1.0  0.44300  0.58388  0.94285  1.0000
  H   H40       1.0  0.39876  0.84249  0.08096  1.0000
  H   H41       1.0  0.39653  0.49309  0.06235  1.0000
  H   H42       1.0  0.49662  0.89085  0.99973  1.0000
  H   H43       1.0  0.42805  0.46713  0.04875  1.0000
  H   H44       1.0  0.51979  0.94988  0.03691  1.0000
  H   H45       1.0  0.50638  0.54382  0.92786  1.0000
  H   H46       1.0  0.43042  0.93213  0.95066  1.0000
  H   H47       1.0  0.47495  0.56823  0.93207  1.0000
  H   H48       1.0  0.40743  0.87450  0.92701  1.0000
  H   H49       1.0  0.99824  0.50667  0.11367  1.0000
  H   H50       1.0  0.51040  0.50283  0.94346  1.0000
  H   H51       1.0  0.47353  0.98031  0.96073  1.0000
  H   H52       1.0  0.93001  0.52565  0.01814  1.0000
  H   H53       1.0  0.47436  0.41046  0.01598  1.0000
  H   H54       1.0  0.87653  0.48573  0.05192  1.0000
  H   H55       1.0  0.51279  0.39346  0.00743  1.0000
  H   H56       1.0  0.90888  0.42303  0.05735  1.0000
  H   H57       1.0  0.58396  0.48302  0.96303  1.0000
  H   H58       1.0  0.96154  0.46196  0.02026  1.0000
  H   H59       1.0  0.54560  0.49900  0.96229  1.0000
  H   H60       1.0  0.83900  0.43326  0.90146  1.0000
  H   H61       1.0  0.54850  0.39568  0.09280  1.0000
  H   H62       1.0  0.59416  0.14085  0.00349  1.0000
  H   H63       1.0  0.63241  0.19210  0.00524  1.0000
  H   H64       1.0  0.64991  0.24629  0.99499  1.0000
  H   H65       1.0  0.55725  0.22987  0.04958  1.0000
  H   H66       1.0  0.53967  0.17529  0.06210  1.0000
  C   C1        1.0  0.31463  0.67511  0.46531  1.0000
  C   C2        1.0  0.34329  0.65408  0.47593  1.0000
  C   C3        1.0  0.36543  0.70231  0.45118  1.0000
  C   C4        1.0  0.36633  0.62227  0.48458  1.0000
  C   C5        1.0  0.39695  0.75761  0.44982  1.0000
  C   C6        1.0  0.35624  0.59336  0.50851  1.0000
  C   C7        1.0  0.42435  0.77267  0.36892  1.0000
  C   C8        1.0  0.37689  0.58298  0.50468  1.0000
  C   C9        1.0  0.43363  0.80438  0.38405  1.0000
  C   C10       1.0  0.40796  0.60099  0.47270  1.0000
  C   C11       1.0  0.41557  0.82151  0.47917  1.0000
  C   C12       1.0  0.41742  0.62973  0.44862  1.0000
  C   C13       1.0  0.38808  0.80576  0.55754  1.0000
  C   C14       1.0  0.39695  0.64094  0.45510  1.0000
  C   C15       1.0  0.37852  0.77396  0.54567  1.0000
  C   C16       1.0  0.16592  0.58454  0.52523  1.0000
  C   C17       1.0  0.42965  0.58971  0.46391  1.0000
  C   C18       1.0  0.42609  0.85557  0.50124  1.0000
  C   C19       1.0  0.46428  0.90466  0.47590  1.0000
  C   C20       1.0  0.49573  0.92723  0.52153  1.0000
  C   C21       1.0  0.50930  0.95978  0.53694  1.0000
  C   C22       1.0  0.49152  0.97042  0.50008  1.0000
  C   C23       1.0  0.46006  0.94811  0.45389  1.0000
  C   C24       1.0  0.44660  0.91582  0.44262  1.0000
  C   C25       1.0  0.99522  0.49922  0.45756  1.0000
  C   C26       1.0  0.48671  0.48049  0.48639  1.0000
  C   C27       1.0  0.53338  0.02882  0.55383  1.0000
  C   C28       1.0  0.96312  0.48040  0.50194  1.0000
  C   C29       1.0  0.53917  0.06037  0.55145  1.0000
  C   C30       1.0  0.94377  0.49386  0.51900  1.0000
  C   C31       1.0  0.56984  0.08576  0.57961  1.0000
  C   C32       1.0  0.91276  0.47696  0.54176  1.0000
  C   C33       1.0  0.57788  0.11667  0.58792  1.0000
  C   C34       1.0  0.89978  0.44514  0.54045  1.0000
  C   C35       1.0  0.55540  0.12326  0.56553  1.0000
  C   C36       1.0  0.91927  0.43242  0.53173  1.0000
  C   C37       1.0  0.52470  0.09808  0.53972  1.0000
  C   C38       1.0  0.95069  0.44990  0.51292  1.0000
  C   C39       1.0  0.51676  0.06701  0.53091  1.0000
  C   C40       1.0  0.84899  0.42932  0.49646  1.0000
  C   C41       1.0  0.57735  0.42795  0.52883  1.0000
  C   C42       1.0  0.58845  0.17265  0.53578  1.0000
  C   C43       1.0  0.81614  0.40871  0.50132  1.0000
  C   C44       1.0  0.79547  0.41899  0.49652  1.0000
  C   C45       1.0  0.76391  0.39960  0.50162  1.0000
  C   C46       1.0  0.75326  0.36891  0.50620  1.0000
  C   C47       1.0  0.77343  0.35792  0.50874  1.0000
  C   C48       1.0  0.80461  0.37774  0.50698  1.0000
  C   C49       1.0  0.69714  0.34678  0.50583  1.0000
  C   C50       1.0  0.66898  0.36756  0.48641  1.0000
  C   C51       1.0  0.64610  0.31826  0.50148  1.0000
  C   C52       1.0  0.30265  0.65134  0.96664  1.0000
  C   C53       1.0  0.33018  0.62947  0.98216  1.0000
  C   C54       1.0  0.35359  0.67858  0.96511  1.0000
  C   C55       1.0  0.24662  0.63135  0.98038  1.0000
  C   C56       1.0  0.22705  0.64305  0.97741  1.0000
  C   C57       1.0  0.19586  0.62492  0.98990  1.0000
  C   C58       1.0  0.18341  0.59470  0.00555  1.0000
  C   C59       1.0  0.20350  0.58370  0.01069  1.0000
  C   C60       1.0  0.23512  0.60152  0.99635  1.0000
  C   C61       1.0  0.15038  0.57576  0.01802  1.0000
  C   C62       1.0  0.41963  0.56821  0.97235  1.0000
  C   C63       1.0  0.41401  0.83057  0.00382  1.0000
  C   C64       1.0  0.43292  0.53209  0.99767  1.0000
  C   C65       1.0  0.45056  0.87875  0.96440  1.0000
  C   C66       1.0  0.42064  0.50370  0.03104  1.0000
  C   C67       1.0  0.48231  0.90037  0.99145  1.0000
  C   C68       1.0  0.43805  0.48922  0.02458  1.0000
  C   C69       1.0  0.49536  0.93321  0.01177  1.0000
  C   C70       1.0  0.46923  0.50359  0.98628  1.0000
  C   C71       1.0  0.47673  0.94501  0.99632  1.0000
  C   C72       1.0  0.48215  0.53247  0.95627  1.0000
  C   C73       1.0  0.44495  0.92346  0.96644  1.0000
  C   C74       1.0  0.46436  0.54634  0.95960  1.0000
  C   C75       1.0  0.43200  0.89099  0.95247  1.0000
  C   C76       1.0  0.98104  0.52154  0.99087  1.0000
  C   C77       1.0  0.48096  0.46230  0.99692  1.0000
  C   C78       1.0  0.51845  0.00322  0.04423  1.0000
  C   C79       1.0  0.94957  0.49696  0.01676  1.0000
  C   C80       1.0  0.50682  0.45572  0.99234  1.0000
  C   C81       1.0  0.92500  0.50292  0.02537  1.0000
  C   C82       1.0  0.49852  0.42605  0.00440  1.0000
  C   C83       1.0  0.89518  0.48037  0.04240  1.0000
  C   C84       1.0  0.52025  0.41700  0.00180  1.0000
  C   C85       1.0  0.88898  0.45076  0.04890  1.0000
  C   C86       1.0  0.55156  0.43788  0.99070  1.0000
  C   C87       1.0  0.91365  0.44538  0.04673  1.0000
  C   C88       1.0  0.55988  0.46735  0.97561  1.0000
  C   C89       1.0  0.94331  0.46775  0.02757  1.0000
  C   C90       1.0  0.53789  0.47607  0.97572  1.0000
  C   C91       1.0  0.83640  0.42035  0.98419  1.0000
  C   C92       1.0  0.57043  0.40870  0.03699  1.0000
  C   C93       1.0  0.57581  0.14807  0.03498  1.0000
  C   C94       1.0  0.58492  0.18024  0.03684  1.0000
  C   C95       1.0  0.61580  0.20036  0.01560  1.0000
  C   C96       1.0  0.62599  0.23079  0.00924  1.0000
  C   C97       1.0  0.60437  0.24099  0.02274  1.0000
  C   C98       1.0  0.57333  0.22122  0.04251  1.0000
  C   C99       1.0  0.56369  0.19116  0.04945  1.0000
  C   C100      1.0  0.68781  0.32397  0.00371  1.0000
  C   C101      1.0  0.65889  0.34446  0.99001  1.0000
  C   C102      1.0  0.63680  0.29557  0.00871  1.0000
  N   N1        1.0  0.33909  0.70202  0.45045  1.0000
  N   N2        1.0  0.31512  0.65059  0.47857  1.0000
  N   N3        1.0  0.36934  0.67899  0.46189  1.0000
  N   N4        1.0  0.14338  0.58298  0.46516  1.0000
  N   N5        1.0  0.42129  0.56511  0.50342  1.0000
  N   N6        1.0  0.45344  0.87211  0.45668  1.0000
  N   N7        1.0  0.01855  0.50080  0.52723  1.0000
  N   N8        1.0  0.49478  0.50962  0.47342  1.0000
  N   N9        1.0  0.50375  0.00227  0.50419  1.0000
  N   N10       1.0  0.86829  0.42515  0.54905  1.0000
  N   N11       1.0  0.58211  0.45187  0.49221  1.0000
  N   N12       1.0  0.56134  0.15359  0.57046  1.0000
  N   N13       1.0  0.67235  0.31944  0.51313  1.0000
  N   N14       1.0  0.69735  0.37196  0.49470  1.0000
  N   N15       1.0  0.64269  0.34130  0.48476  1.0000
  N   N16       1.0  0.32767  0.67816  0.95491  1.0000
  N   N17       1.0  0.30201  0.62599  0.97856  1.0000
  N   N18       1.0  0.35667  0.65527  0.98052  1.0000
  N   N19       1.0  0.13203  0.58251  0.97698  1.0000
  N   N20       1.0  0.41216  0.54286  0.00317  1.0000
  N   N21       1.0  0.44019  0.84617  0.94364  1.0000
  N   N22       1.0  0.00397  0.51768  0.02506  1.0000
  N   N23       1.0  0.48863  0.49082  0.97911  1.0000
  N   N24       1.0  0.48836  0.97749  0.00837  1.0000
  N   N25       1.0  0.85967  0.42629  0.06316  1.0000
  N   N26       1.0  0.57529  0.43097  0.98575  1.0000
  N   N27       1.0  0.54820  0.12875  0.06258  1.0000
  N   N28       1.0  0.66335  0.29649  0.01308  1.0000
  N   N29       1.0  0.68717  0.34855  0.99180  1.0000
  N   N30       1.0  0.63288  0.31899  0.99850  1.0000
  O   O1        1.0  0.28802  0.67515  0.46448  1.0000
  O   O2        1.0  0.34214  0.62848  0.49147  1.0000
  O   O3        1.0  0.39231  0.72708  0.43540  1.0000
  O   O4        1.0  0.72292  0.34576  0.51192  1.0000
  O   O5        1.0  0.66979  0.39363  0.47688  1.0000
  O   O6        1.0  0.61898  0.29285  0.50864  1.0000
  O   O7        1.0  0.00019  0.51331  0.35686  1.0000
  O   O8        1.0  0.46016  0.46051  0.49805  1.0000
  O   O9        1.0  0.55399  0.02746  0.60116  1.0000
  O   O10       1.0  0.27707  0.65308  0.96469  1.0000
  O   O11       1.0  0.32904  0.60322  0.99066  1.0000
  O   O12       1.0  0.38095  0.70365  0.95573  1.0000
  O   O13       1.0  0.71456  0.32453  0.00932  1.0000
  O   O14       1.0  0.65991  0.37019  0.97525  1.0000
  O   O15       1.0  0.60978  0.27022  0.01667  1.0000
  O   O16       1.0  0.98537  0.54206  0.93641  1.0000
  O   O17       1.0  0.45454  0.44312  0.01813  1.0000
  O   O18       1.0  0.53928  0.00109  0.08325  1.0000
  C  Sn1       1.0  0.55641  0.07277  0.15541  1.0000
  C   C103      1.0  0.52783  0.04353  0.10001  1.0000
  C  Sn2       1.0  0.50570  0.04019  0.00366  1.0000
  C  Sn3       1.0  0.51877  0.15097  0.96168  1.0000
  C   C104      1.0  0.54084  0.09583  0.01703  1.0000
  C  Sn4       1.0  0.56299  0.09919  0.11342  1.0000
  O  Te1       1.0  0.57819  0.07557  0.25158  1.0000
  O  Te2       1.0  0.48378  0.09508  0.94979  1.0000
  O  Te3       1.0  0.49696  0.14815  0.86543  1.0000
  O  Te4       1.0  0.59138  0.12863  0.16725  1.0000
  Mg  Mg1       1.0  0.46163  0.10314  0.82156  1.0000
  Mg  Mg2       1.0  0.61356  0.12059  0.29539  1.0000
  C  Sn5       1.0  0.21047  0.63551  0.41677  1.0000
  C   C105      1.0  0.19888  0.60680  0.44443  1.0000
  C  Sn6       1.0  0.21817  0.60154  0.50980  1.0000
  C  Sn7       1.0  0.24971  0.62549  0.54847  1.0000
  C   C106      1.0  0.26129  0.65418  0.52085  1.0000
  C  Sn8       1.0  0.24201  0.65946  0.45544  1.0000
  O  Te5       1.0  0.19077  0.64026  0.35133  1.0000
  O  Te6       1.0  0.20605  0.57265  0.53629  1.0000
  O  Te7       1.0  0.26941  0.62072  0.61396  1.0000
  O  Te8       1.0  0.25411  0.68834  0.42899  1.0000
  Mg  Mg3       1.0  0.24208  0.57743  0.62789  1.0000
  Mg  Mg4       1.0  0.21810  0.68359  0.33750  1.0000
  C  Sn9       1.0  0.41566  0.76661  0.81780  1.0000
  C   C107      1.0  0.40176  0.78812  0.91668  1.0000
  C  Sn10      1.0  0.37354  0.69889  0.05582  1.0000
  C  Sn11      1.0  0.36556  0.67198  0.09709  1.0000
  C   C108      1.0  0.38596  0.73486  0.99826  1.0000
  C  Sn12      1.0  0.40768  0.73970  0.85907  1.0000
  O  Te9       1.0  0.43731  0.77195  0.67928  1.0000
  O  Te10      1.0  0.35995  0.72071  0.15275  1.0000
  O  Te11      1.0  0.34389  0.66665  0.23573  1.0000
  O  Te12      1.0  0.42127  0.71790  0.76220  1.0000
  Mg  Mg5       1.0  0.33173  0.70312  0.32919  1.0000
  Mg  Mg6       1.0  0.44950  0.73548  0.58582  1.0000
  C  Sn13      1.0  0.39772  0.53217  0.00749  1.0000
  C   C109      1.0  0.39265  0.50418  0.02498  1.0000
  C  Sn14      1.0  0.36301  0.47786  0.00793  1.0000
  C  Sn15      1.0  0.34441  0.56389  0.97253  1.0000
  C   C110      1.0  0.34949  0.59187  0.95502  1.0000
  C  Sn16      1.0  0.37912  0.61821  0.97209  1.0000
  O  Te13      1.0  0.42755  0.55820  0.02504  1.0000
  O  Te14      1.0  0.35851  0.45014  0.02603  1.0000
  O  Te15      1.0  0.31457  0.53784  0.95499  1.0000
  O  Te16      1.0  0.38363  0.64591  0.95398  1.0000
  Mg  Mg7       1.0  0.32012  0.50537  0.99072  1.0000
  Mg  Mg8       1.0  0.42851  0.67504  0.98915  1.0000
  C  Sn17      1.0  0.79849  0.44069  0.97150  1.0000
  C   C111      1.0  0.80977  0.47000  0.95033  1.0000
  C  Sn18      1.0  0.79066  0.48378  0.97233  1.0000
  C  Sn19      1.0  0.75312  0.38359  0.01655  1.0000
  C   C112      1.0  0.74185  0.35431  0.03773  1.0000
  C  Sn20      1.0  0.76095  0.34051  0.01572  1.0000
  O  Te17      1.0  0.81801  0.42736  0.94888  1.0000
  O  Te18      1.0  0.80246  0.51309  0.95041  1.0000
  O  Te19      1.0  0.73360  0.39695  0.03916  1.0000
  O  Te20      1.0  0.74916  0.31122  0.03765  1.0000
  Mg  Mg9       1.0  0.76685  0.52163  0.99528  1.0000
  Mg  Mg10      1.0  0.79126  0.38703  0.99291  1.0000
  C  Sn21      1.0  0.63270  0.23715  0.56952  1.0000
  C   C113      1.0  0.60326  0.21364  0.58612  1.0000
  C  Sn22      1.0  0.57771  0.21401  0.55180  1.0000
  C  Sn23      1.0  0.58166  0.23837  0.49967  1.0000
  C   C114      1.0  0.61108  0.26185  0.48306  1.0000
  C  Sn24      1.0  0.63665  0.26151  0.51740  1.0000
  O  Te21      1.0  0.65791  0.23631  0.60450  1.0000
  O  Te22      1.0  0.54851  0.19026  0.56936  1.0000
  O  Te23      1.0  0.55642  0.23919  0.46470  1.0000
  O  Te24      1.0  0.66584  0.28523  0.49983  1.0000
  Mg  Mg11      1.0  0.52129  0.20160  0.50695  1.0000
  Mg  Mg12      1.0  0.69307  0.27391  0.56210  1.0000
  C  Sn25      1.0  0.07096  0.49930  0.03399  1.0000
  C   C115      1.0  0.09068  0.48812  0.03928  1.0000
  C  Sn26      1.0  0.07918  0.45489  0.01252  1.0000
  C  Sn27      1.0  0.05381  0.51671  0.97966  1.0000
  C   C116      1.0  0.03411  0.52790  0.97435  1.0000
  C  Sn28      1.0  0.03909  0.47677  0.00113  1.0000
  O  Te25      1.0  0.08296  0.53262  0.06110  1.0000
  O  Te26      1.0  0.09935  0.44430  0.01850  1.0000
  O  Te27      1.0  0.04182  0.48337  0.95255  1.0000
  O  Te28      1.0  0.02544  0.57171  0.99513  1.0000
  Mg  Mg13      1.0  0.07850  0.48084  0.97332  1.0000
  Mg  Mg14      1.0  0.04626  0.53516  0.04019  1.0000
  C  Sn29      1.0  0.56396  0.49660  0.53163  1.0000
  C   C117      1.0  0.55946  0.46836  0.54420  1.0000
  C  Sn30      1.0  0.53029  0.44051  0.51242  1.0000
  C  Sn31      1.0  0.50510  0.44088  0.46702  1.0000
  C   C118      1.0  0.50961  0.46910  0.45444  1.0000
  C  Sn32      1.0  0.53877  0.49696  0.48622  1.0000
  O  Te29      1.0  0.59331  0.52416  0.56394  1.0000
  O  Te30      1.0  0.52636  0.41258  0.52586  1.0000
  O  Te31      1.0  0.47573  0.41329  0.43470  1.0000
  O  Te32      1.0  0.54271  0.52488  0.47277  1.0000
  Mg  Mg15      1.0  0.48197  0.38114  0.46936  1.0000
  Mg  Mg16      1.0  0.58709  0.55633  0.52914  1.0000
  C  Sn33      1.0  0.60364  0.43735  0.98258  1.0000
  C   C119      1.0  0.63453  0.45150  0.94112  1.0000
  C  Sn34      1.0  0.64958  0.48444  0.95785  1.0000
  C  Sn35      1.0  0.62692  0.41929  0.01738  1.0000
  C   C120      1.0  0.59604  0.40514  0.05884  1.0000
  C  Sn36      1.0  0.58097  0.37220  0.04211  1.0000
  O  Te33      1.0  0.58906  0.40437  0.96487  1.0000
  O  Te34      1.0  0.68047  0.49804  0.91554  1.0000
  O  Te35      1.0  0.64153  0.45229  0.03506  1.0000
  O  Te36      1.0  0.55010  0.35861  0.08441  1.0000
  Mg  Mg17      1.0  0.69030  0.54403  0.96131  1.0000
  Mg  Mg18      1.0  0.54026  0.31262  0.03879  1.0000
  C  Sn37      1.0  0.63575  0.43086  0.41175  1.0000
  C   C121      1.0  0.60498  0.41632  0.45494  1.0000
  C  Sn38      1.0  0.59424  0.39404  0.53398  1.0000
  C  Sn39      1.0  0.61468  0.38615  0.57074  1.0000
  C   C122      1.0  0.64543  0.40069  0.52760  1.0000
  C  Sn40      1.0  0.65619  0.42297  0.44852  1.0000
  O  Te37      1.0  0.64599  0.45306  0.33281  1.0000
  O  Te38      1.0  0.56338  0.37981  0.57588  1.0000
  O  Te39      1.0  0.60442  0.36393  0.64974  1.0000
  O  Te40      1.0  0.68703  0.43720  0.40666  1.0000
  Mg  Mg19      1.0  0.56037  0.35101  0.68213  1.0000
  Mg  Mg20      1.0  0.69008  0.46601  0.30051  1.0000
  C  Sn41      1.0  0.47652  0.56031  0.40464  1.0000
  C   C123      1.0  0.44547  0.55025  0.44017  1.0000
  C  Sn42      1.0  0.42923  0.52748  0.51721  1.0000
  C  Sn43      1.0  0.44434  0.51451  0.55975  1.0000
  C   C124      1.0  0.47537  0.52457  0.52426  1.0000
  C  Sn44      1.0  0.49163  0.54733  0.44718  1.0000
  O  Te41      1.0  0.49231  0.58309  0.32757  1.0000
  O  Te42      1.0  0.39820  0.51779  0.55141  1.0000
  O  Te43      1.0  0.42853  0.49171  0.63687  1.0000
  O  Te44      1.0  0.52264  0.55703  0.41301  1.0000
  Mg  Mg21      1.0  0.38656  0.48615  0.65798  1.0000
  Mg  Mg22      1.0  0.53432  0.58868  0.30655  1.0000
  C  Sn45      1.0  0.09526  0.51933  0.43164  1.0000
  C   C125      1.0  0.10978  0.55094  0.43149  1.0000
  C  Sn46      1.0  0.09440  0.57043  0.49032  1.0000
  C  Sn47      1.0  0.06388  0.55807  0.55067  1.0000
  C   C126      1.0  0.04938  0.52649  0.55083  1.0000
  C  Sn48      1.0  0.06473  0.50698  0.49200  1.0000
  O  Te45      1.0  0.11106  0.50029  0.37226  1.0000
  O  Te46      1.0  0.10940  0.60194  0.48887  1.0000
  O  Te47      1.0  0.04808  0.57715  0.61007  1.0000
  O  Te48      1.0  0.04976  0.47548  0.49346  1.0000
  Mg  Mg23      1.0  0.07826  0.61852  0.58276  1.0000
  Mg  Mg24      1.0  0.08087  0.45890  0.39970  1.0000
