data_image0
_chemical_formula_structural       H18C30N30O18SnCSn2CSnTe4Mg2SnCSn2CSnTe4Mg2SnCSn2CSnTe4Mg2SnCSn2CSnTe4Mg2SnCSn2CSnTe4Mg2SnCSn2CSnTe4Mg2SnCSn2CSnTe4Mg2SnCSn2CSnTe4Mg2SnCSn2CSnTe4Mg2SnCSn2CSnTe4Mg2SnCSn2CSnTe4Mg2SnCSn2CSnTe4Mg2SnCSn2CSnTe4Mg2SnCSn2CSnTe4Mg2SnCSn2CSnTe4Mg2SnCSn2CSnTe4Mg2SnCSn2CSnTe4Mg2SnCSn2CSnTe4Mg2SnCSn2CSnTe4Mg2SnCSn2CSnTe4Mg2
_chemical_formula_sum              "H18 C70 N30 O18 Sn80 Te80 Mg40"
_cell_length_a       49.592
_cell_length_b       49.7162
_cell_length_c       5.83106
_cell_angle_alpha    89.129
_cell_angle_beta     90.6937
_cell_angle_gamma    120.06

_symmetry_space_group_name_H-M    'P1'
_space_group_IT_number       1

loop_
  _space_group_symop_operation_xyz
  'x, y, z'

loop_
  _atom_site_type_symbol
  _atom_site_label
  _atom_site_symmetry_multiplicity
  _atom_site_fract_x
  _atom_site_fract_y
  _atom_site_fract_z
  _atom_site_occupancy
  H   H1        1.0  0.47902  0.56812  0.48396  1.0000
  H   H2        1.0  0.44509  0.91934  0.52380  1.0000
  H   H3        1.0  0.08687  0.51950  0.47534  1.0000
  H   H4        1.0  0.45716  0.59138  0.51380  1.0000
  H   H5        1.0  0.41258  0.87154  0.53819  1.0000
  H   H6        1.0  0.13403  0.54122  0.44657  1.0000
  H   H7        1.0  0.53916  0.41255  0.50340  1.0000
  H   H8        1.0  0.58706  0.12614  0.52961  1.0000
  H   H9        1.0  0.87358  0.45969  0.46786  1.0000
  H   H10       1.0  0.47291  0.55665  0.98412  1.0000
  H   H11       1.0  0.43515  0.91383  0.03428  1.0000
  H   H12       1.0  0.08632  0.52501  0.97713  1.0000
  H   H13       1.0  0.45573  0.58779  0.96881  1.0000
  H   H14       1.0  0.40990  0.86949  0.98498  1.0000
  H   H15       1.0  0.13207  0.54440  0.97719  1.0000
  H   H16       1.0  0.54040  0.41488  0.00948  1.0000
  H   H17       1.0  0.58863  0.12767  0.97230  1.0000
  H   H18       1.0  0.87494  0.46024  0.02979  1.0000
  C   C1        1.0  0.46252  0.48109  0.37709  1.0000
  C   C2        1.0  0.52436  0.98463  0.60450  1.0000
  C   C3        1.0  0.01576  0.53930  0.60845  1.0000
  C   C4        1.0  0.43445  0.56974  0.52066  1.0000
  C   C5        1.0  0.43162  0.86695  0.50250  1.0000
  C   C6        1.0  0.13573  0.56370  0.48276  1.0000
  C   C7        1.0  0.56237  0.43342  0.52003  1.0000
  C   C8        1.0  0.56590  0.12835  0.50777  1.0000
  C   C9        1.0  0.87145  0.43670  0.47290  1.0000
  C   C10       1.0  0.66986  0.36027  0.63112  1.0000
  C   C11       1.0  0.64092  0.31746  0.51399  1.0000
  C   C12       1.0  0.68607  0.33945  0.37328  1.0000
  C   C13       1.0  0.32578  0.63909  0.34395  1.0000
  C   C14       1.0  0.36190  0.68160  0.52246  1.0000
  C   C15       1.0  0.31515  0.67167  0.53201  1.0000
  C   C16       1.0  0.46008  0.47556  0.11748  1.0000
  C   C17       1.0  0.51835  0.98171  0.87605  1.0000
  C   C18       1.0  0.01900  0.53779  0.87668  1.0000
  C   C19       1.0  0.43243  0.56758  0.99732  1.0000
  C   C20       1.0  0.43076  0.86686  0.98549  1.0000
  C   C21       1.0  0.13515  0.56770  0.99926  1.0000
  C   C22       1.0  0.56368  0.43540  0.98425  1.0000
  C   C23       1.0  0.56698  0.12885  0.99814  1.0000
  C   C24       1.0  0.87227  0.43695  0.02813  1.0000
  C   C25       1.0  0.67278  0.35420  0.87048  1.0000
  C   C26       1.0  0.64586  0.30932  0.02356  1.0000
  C   C27       1.0  0.68970  0.33451  0.14319  1.0000
  C   C28       1.0  0.31719  0.62402  0.12230  1.0000
  C   C29       1.0  0.35634  0.68767  0.98493  1.0000
  C   C30       1.0  0.30244  0.65920  0.02534  1.0000
  N   N1        1.0  0.56552  0.46211  0.48972  1.0000
  N   N2        1.0  0.53757  0.10387  0.48771  1.0000
  N   N3        1.0  0.89675  0.43332  0.51194  1.0000
  N   N4        1.0  0.46176  0.54475  0.51633  1.0000
  N   N5        1.0  0.46582  0.91937  0.48570  1.0000
  N   N6        1.0  0.08276  0.53758  0.52014  1.0000
  N   N7        1.0  0.43481  0.54269  0.52933  1.0000
  N   N8        1.0  0.46082  0.89147  0.46865  1.0000
  N   N9        1.0  0.10872  0.56359  0.52412  1.0000
  N   N10       1.0  0.63810  0.34169  0.53853  1.0000
  N   N11       1.0  0.66142  0.31040  0.48484  1.0000
  N   N12       1.0  0.69266  0.36541  0.48133  1.0000
  N   N13       1.0  0.35501  0.65565  0.42729  1.0000
  N   N14       1.0  0.34414  0.69559  0.55621  1.0000
  N   N15       1.0  0.30346  0.64474  0.44006  1.0000
  N   N16       1.0  0.56763  0.46459  0.99631  1.0000
  N   N17       1.0  0.53909  0.10395  0.00638  1.0000
  N   N18       1.0  0.89759  0.43348  0.99710  1.0000
  N   N19       1.0  0.45280  0.53539  0.02478  1.0000
  N   N20       1.0  0.45770  0.91910  0.98494  1.0000
  N   N21       1.0  0.08257  0.54318  0.02690  1.0000
  N   N22       1.0  0.42876  0.53878  0.03245  1.0000
  N   N23       1.0  0.45848  0.89362  0.96896  1.0000
  N   N24       1.0  0.10856  0.56881  0.03699  1.0000
  N   N25       1.0  0.64196  0.33180  0.97248  1.0000
  N   N26       1.0  0.66790  0.30319  0.05255  1.0000
  N   N27       1.0  0.69737  0.35740  0.98244  1.0000
  N   N28       1.0  0.37779  0.68586  0.93120  1.0000
  N   N29       1.0  0.32843  0.68429  0.03112  1.0000
  N   N30       1.0  0.30006  0.62657  0.97431  1.0000
  O   O1        1.0  0.66303  0.41171  0.49357  1.0000
  O   O2        1.0  0.58863  0.25023  0.51040  1.0000
  O   O3        1.0  0.74815  0.34015  0.48832  1.0000
  O   O4        1.0  0.33057  0.58559  0.51331  1.0000
  O   O5        1.0  0.40966  0.74583  0.51722  1.0000
  O   O6        1.0  0.25659  0.66776  0.49787  1.0000
  O   O7        1.0  0.44314  0.48312  0.50727  1.0000
  O   O8        1.0  0.53658  0.97220  0.50578  1.0000
  O   O9        1.0  0.02935  0.56487  0.49950  1.0000
  O   O10       1.0  0.65948  0.40690  0.01095  1.0000
  O   O11       1.0  0.58765  0.25089  0.99705  1.0000
  O   O12       1.0  0.74985  0.33855  0.01475  1.0000
  O   O13       1.0  0.33094  0.58611  0.98272  1.0000
  O   O14       1.0  0.41102  0.74732  0.98073  1.0000
  O   O15       1.0  0.25859  0.66678  0.98730  1.0000
  O   O16       1.0  0.43482  0.46243  0.00742  1.0000
  O   O17       1.0  0.51729  0.95973  0.00074  1.0000
  O   O18       1.0  0.03958  0.55947  0.99182  1.0000
  C  Sn1       1.0  0.50293  0.44109  0.44405  1.0000
  C   C31       1.0  0.53486  0.46255  0.44791  1.0000
  C  Sn2       1.0  0.54557  0.49374  0.49648  1.0000
  C  Sn3       1.0  0.52392  0.50369  0.54230  1.0000
  C   C32       1.0  0.49201  0.48224  0.53848  1.0000
  C  Sn4       1.0  0.48128  0.45104  0.48988  1.0000
  O  Te1       1.0  0.49275  0.41003  0.39510  1.0000
  O  Te2       1.0  0.57759  0.51477  0.49927  1.0000
  O  Te3       1.0  0.53413  0.53478  0.59127  1.0000
  O  Te4       1.0  0.44928  0.43003  0.48711  1.0000
  Mg  Mg1       1.0  0.58003  0.55461  0.57503  1.0000
  Mg  Mg2       1.0  0.44681  0.39017  0.41150  1.0000
  C  Sn5       1.0  0.49629  0.02227  0.41894  1.0000
  C   C33       1.0  0.51791  0.01242  0.45613  1.0000
  C  Sn6       1.0  0.54808  0.03337  0.53097  1.0000
  C  Sn7       1.0  0.55683  0.06482  0.56959  1.0000
  C   C34       1.0  0.53522  0.07465  0.53245  1.0000
  C  Sn8       1.0  0.50504  0.05371  0.45756  1.0000
  O  Te5       1.0  0.46625  0.00093  0.34413  1.0000
  O  Te6       1.0  0.56929  0.02298  0.56689  1.0000
  O  Te7       1.0  0.58690  0.08616  0.64446  1.0000
  O  Te8       1.0  0.48383  0.06409  0.42169  1.0000
  Mg  Mg3       1.0  0.60745  0.06086  0.66922  1.0000
  Mg  Mg4       1.0  0.44566  0.02623  0.31948  1.0000
  C  Sn9       1.0  0.92276  0.48467  0.89875  1.0000
  C   C35       1.0  0.93262  0.47134  0.05080  1.0000
  C  Sn10      1.0  0.95091  0.45715  0.97114  1.0000
  C  Sn11      1.0  0.95810  0.45920  0.73457  1.0000
  C   C36       1.0  0.94754  0.47396  0.58267  1.0000
  C  Sn12      1.0  0.92996  0.48672  0.66218  1.0000
  O  Te9       1.0  0.90522  0.49727  0.98218  1.0000
  O  Te10      1.0  0.96050  0.44393  0.12642  1.0000
  O  Te11      1.0  0.97565  0.44659  0.65121  1.0000
  O  Te12      1.0  0.91967  0.50137  0.50705  1.0000
  Mg  Mg5       1.0  0.98439  0.42895  0.92991  1.0000
  Mg  Mg6       1.0  0.89650  0.51494  0.70337  1.0000
  C  Sn13      1.0  0.95907  0.45685  0.67511  1.0000
  C   C37       1.0  0.93135  0.45773  0.67916  1.0000
  C  Sn14      1.0  0.93087  0.48440  0.60683  1.0000
  C  Sn15      1.0  0.95868  0.51074  0.52868  1.0000
  C   C38       1.0  0.98637  0.50985  0.52462  1.0000
  C  Sn16      1.0  0.98687  0.48319  0.59696  1.0000
  O  Te13      1.0  0.95900  0.42994  0.74820  1.0000
  O  Te14      1.0  0.90288  0.48474  0.61252  1.0000
  O  Te15      1.0  0.95872  0.53767  0.45557  1.0000
  O  Te16      1.0  0.01484  0.48285  0.59126  1.0000
  Mg  Mg7       1.0  0.91481  0.52681  0.49531  1.0000
  Mg  Mg8       1.0  0.00293  0.44078  0.70831  1.0000
  C  Sn17      1.0  0.62804  0.45609  0.55776  1.0000
  C   C39       1.0  0.59650  0.43549  0.51435  1.0000
  C  Sn18      1.0  0.58396  0.40358  0.55000  1.0000
  C  Sn19      1.0  0.60335  0.39202  0.63087  1.0000
  C   C40       1.0  0.63487  0.41261  0.67427  1.0000
  C  Sn20      1.0  0.64743  0.44452  0.63863  1.0000
  O  Te17      1.0  0.64008  0.48790  0.52092  1.0000
  O  Te18      1.0  0.55236  0.38344  0.50532  1.0000
  O  Te19      1.0  0.59128  0.36018  0.66769  1.0000
  O  Te20      1.0  0.67900  0.46466  0.68330  1.0000
  Mg  Mg9       1.0  0.54683  0.34205  0.58214  1.0000
  Mg  Mg10      1.0  0.68456  0.50605  0.60666  1.0000
  C  Sn21      1.0  0.60440  0.19138  0.58376  1.0000
  C   C41       1.0  0.57545  0.16443  0.55742  1.0000
  C  Sn22      1.0  0.54974  0.16628  0.47779  1.0000
  C  Sn23      1.0  0.55303  0.19567  0.42319  1.0000
  C   C42       1.0  0.58196  0.22259  0.44949  1.0000
  C  Sn24      1.0  0.60768  0.22077  0.52916  1.0000
  O  Te21      1.0  0.62978  0.18898  0.66362  1.0000
  O  Te22      1.0  0.52104  0.13901  0.45294  1.0000
  O  Te23      1.0  0.52761  0.19804  0.34328  1.0000
  O  Te24      1.0  0.63637  0.24801  0.55398  1.0000
  Mg  Mg11      1.0  0.49335  0.15429  0.33800  1.0000
  Mg  Mg12      1.0  0.66408  0.23276  0.66878  1.0000
  C  Sn25      1.0  0.82913  0.37388  0.54455  1.0000
  C   C43       1.0  0.84023  0.40585  0.53600  1.0000
  C  Sn26      1.0  0.82067  0.41750  0.58972  1.0000
  C  Sn27      1.0  0.78934  0.39676  0.65345  1.0000
  C   C44       1.0  0.77825  0.36482  0.66201  1.0000
  C  Sn28      1.0  0.79780  0.35315  0.60828  1.0000
  O  Te25      1.0  0.84910  0.36275  0.49016  1.0000
  O  Te26      1.0  0.83230  0.44955  0.57988  1.0000
  O  Te27      1.0  0.76937  0.40792  0.70784  1.0000
  O  Te28      1.0  0.78619  0.32112  0.61813  1.0000
  Mg  Mg13      1.0  0.79605  0.45347  0.66950  1.0000
  Mg  Mg14      1.0  0.82242  0.31717  0.52867  1.0000
  C  Sn29      1.0  0.37173  0.54516  0.31253  1.0000
  C   C45       1.0  0.40316  0.56681  0.34959  1.0000
  C  Sn30      1.0  0.41218  0.59699  0.41759  1.0000
  C  Sn31      1.0  0.38930  0.60573  0.44938  1.0000
  C   C46       1.0  0.35789  0.58410  0.41237  1.0000
  C  Sn32      1.0  0.34885  0.55390  0.34432  1.0000
  O  Te29      1.0  0.36324  0.51511  0.24462  1.0000
  O  Te30      1.0  0.44375  0.61823  0.45352  1.0000
  O  Te31      1.0  0.39781  0.63581  0.51734  1.0000
  O  Te32      1.0  0.31730  0.53268  0.30844  1.0000
  Mg  Mg15      1.0  0.44372  0.65640  0.54503  1.0000
  Mg  Mg16      1.0  0.31730  0.49450  0.21705  1.0000
  C  Sn33      1.0  0.39210  0.80301  0.54790  1.0000
  C   C47       1.0  0.42103  0.83035  0.55265  1.0000
  C  Sn34      1.0  0.44795  0.83014  0.48821  1.0000
  C  Sn35      1.0  0.44593  0.80201  0.41741  1.0000
  C   C48       1.0  0.41701  0.77469  0.41265  1.0000
  C  Sn36      1.0  0.39007  0.77489  0.47710  1.0000
  O  Te33      1.0  0.36548  0.80377  0.61304  1.0000
  O  Te34      1.0  0.47661  0.85776  0.49444  1.0000
  O  Te35      1.0  0.47258  0.80127  0.35225  1.0000
  O  Te36      1.0  0.36143  0.74729  0.47085  1.0000
  Mg  Mg17      1.0  0.50626  0.84490  0.38948  1.0000
  Mg  Mg18      1.0  0.33177  0.76012  0.57566  1.0000
  C  Sn37      1.0  0.17714  0.62680  0.40763  1.0000
  C   C49       1.0  0.16794  0.59548  0.44165  1.0000
  C  Sn38      1.0  0.18905  0.58697  0.52766  1.0000
  C  Sn39      1.0  0.22000  0.61025  0.58093  1.0000
  C   C50       1.0  0.22919  0.64155  0.54695  1.0000
  C  Sn40      1.0  0.20809  0.65008  0.46090  1.0000
  O  Te37      1.0  0.15564  0.63477  0.32148  1.0000
  O  Te38      1.0  0.17932  0.55551  0.56014  1.0000
  O  Te39      1.0  0.24150  0.60225  0.66714  1.0000
  O  Te40      1.0  0.21781  0.68152  0.42846  1.0000
  Mg  Mg19      1.0  0.21715  0.55630  0.68172  1.0000
  Mg  Mg20      1.0  0.17999  0.68076  0.30701  1.0000
  C  Sn41      1.0  0.44689  0.78996  0.16582  1.0000
  C   C51       1.0  0.42158  0.78220  0.01934  1.0000
  C  Sn42      1.0  0.39423  0.77991  0.10315  1.0000
  C  Sn43      1.0  0.39213  0.78551  0.33825  1.0000
  C   C52       1.0  0.41744  0.79327  0.48459  1.0000
  C  Sn44      1.0  0.44480  0.79556  0.40093  1.0000
  O  Te41      1.0  0.47400  0.79212  0.07832  1.0000
  O  Te42      1.0  0.36993  0.77068  0.95340  1.0000
  O  Te43      1.0  0.36499  0.78334  0.42568  1.0000
  O  Te44      1.0  0.46979  0.80335  0.55052  1.0000
  Mg  Mg21      1.0  0.33726  0.77204  0.15395  1.0000
  Mg  Mg22      1.0  0.50177  0.80345  0.35015  1.0000
  C  Sn45      1.0  0.50491  0.44240  0.90239  1.0000
  C   C53       1.0  0.53657  0.46411  0.92772  1.0000
  C  Sn46      1.0  0.54607  0.49427  0.99935  1.0000
  C  Sn47      1.0  0.52276  0.50435  0.04680  1.0000
  C   C54       1.0  0.49113  0.48265  0.02151  1.0000
  C  Sn48      1.0  0.48230  0.45105  0.94984  1.0000
  O  Te45      1.0  0.49593  0.41238  0.83058  1.0000
  O  Te46      1.0  0.57715  0.51700  0.02336  1.0000
  O  Te47      1.0  0.53177  0.53440  0.11866  1.0000
  O  Te48      1.0  0.45054  0.42976  0.92587  1.0000
  Mg  Mg23      1.0  0.57780  0.55510  0.12601  1.0000
  Mg  Mg24      1.0  0.44987  0.39165  0.82335  1.0000
  C  Sn49      1.0  0.49396  0.02374  0.92492  1.0000
  C   C55       1.0  0.51456  0.01256  0.89835  1.0000
  C  Sn50      1.0  0.54637  0.03179  0.94100  1.0000
  C  Sn51      1.0  0.55712  0.06427  0.01183  1.0000
  C   C56       1.0  0.53652  0.07544  0.03841  1.0000
  C  Sn52      1.0  0.50541  0.05479  0.99575  1.0000
  O  Te49      1.0  0.46225  0.00411  0.88134  1.0000
  O  Te50      1.0  0.56652  0.02009  0.91318  1.0000
  O  Te51      1.0  0.58886  0.08391  0.05540  1.0000
  O  Te52      1.0  0.48456  0.06791  0.02358  1.0000
  Mg  Mg25      1.0  0.60775  0.05584  0.99343  1.0000
  Mg  Mg26      1.0  0.44403  0.03075  0.94349  1.0000
  C  Sn53      1.0  0.95875  0.45624  0.98274  1.0000
  C   C57       1.0  0.93116  0.45738  0.97397  1.0000
  C  Sn54      1.0  0.93181  0.48509  0.91714  1.0000
  C  Sn55      1.0  0.96062  0.51223  0.86790  1.0000
  C   C58       1.0  0.98818  0.51108  0.87664  1.0000
  C  Sn56      1.0  0.98756  0.48338  0.93349  1.0000
  O  Te53      1.0  0.95685  0.42972  0.03992  1.0000
  O  Te54      1.0  0.90392  0.48566  0.90956  1.0000
  O  Te55      1.0  0.96180  0.54020  0.81069  1.0000
  O  Te56      1.0  0.01542  0.48280  0.94105  1.0000
  Mg  Mg27      1.0  0.91758  0.52928  0.82291  1.0000
  Mg  Mg28      1.0  0.00109  0.44063  0.02756  1.0000
  C  Sn57      1.0  0.58625  0.39726  0.10625  1.0000
  C   C59       1.0  0.58997  0.42664  0.06228  1.0000
  C  Sn58      1.0  0.61882  0.44923  0.97678  1.0000
  C  Sn59      1.0  0.64376  0.44376  0.93420  1.0000
  C   C60       1.0  0.64004  0.41440  0.97812  1.0000
  C  Sn60      1.0  0.61120  0.39180  0.06367  1.0000
  O  Te57      1.0  0.55791  0.37359  0.19169  1.0000
  O  Te58      1.0  0.62198  0.47840  0.93424  1.0000
  O  Te59      1.0  0.67211  0.46746  0.84870  1.0000
  O  Te60      1.0  0.60802  0.36264  0.10616  1.0000
  Mg  Mg29      1.0  0.66510  0.50320  0.81804  1.0000
  Mg  Mg30      1.0  0.56491  0.33782  0.22225  1.0000
  C  Sn61      1.0  0.60816  0.21044  0.90612  1.0000
  C   C61       1.0  0.58643  0.22038  0.92340  1.0000
  C  Sn62      1.0  0.55570  0.20152  0.00362  1.0000
  C  Sn63      1.0  0.54722  0.17066  0.06805  1.0000
  C   C62       1.0  0.56894  0.16074  0.05079  1.0000
  C  Sn64      1.0  0.59968  0.17958  0.97055  1.0000
  O  Te61      1.0  0.63805  0.23111  0.82548  1.0000
  O  Te62      1.0  0.53438  0.21199  0.01933  1.0000
  O  Te63      1.0  0.51730  0.14999  0.14873  1.0000
  O  Te64      1.0  0.62099  0.16912  0.95487  1.0000
  Mg  Mg31      1.0  0.49651  0.17514  0.13934  1.0000
  Mg  Mg32      1.0  0.65887  0.20596  0.83500  1.0000
  C  Sn65      1.0  0.80905  0.41524  0.06087  1.0000
  C   C63       1.0  0.83580  0.41280  0.04140  1.0000
  C  Sn66      1.0  0.83426  0.38358  0.97106  1.0000
  C  Sn67      1.0  0.80466  0.35770  0.91895  1.0000
  C   C64       1.0  0.77793  0.36015  0.93839  1.0000
  C  Sn68      1.0  0.77945  0.38936  0.00876  1.0000
  O  Te65      1.0  0.81185  0.44325  0.13149  1.0000
  O  Te66      1.0  0.86133  0.38169  0.95295  1.0000
  O  Te67      1.0  0.80188  0.32967  0.84829  1.0000
  O  Te68      1.0  0.75240  0.39126  0.02684  1.0000
  Mg  Mg33      1.0  0.84550  0.33855  0.84967  1.0000
  Mg  Mg34      1.0  0.76820  0.43439  0.12998  1.0000
  C  Sn69      1.0  0.35339  0.54923  0.18537  1.0000
  C   C65       1.0  0.35461  0.57793  0.18688  1.0000
  C  Sn70      1.0  0.38157  0.60492  0.11737  1.0000
  C  Sn71      1.0  0.40784  0.60319  0.04468  1.0000
  C   C66       1.0  0.40660  0.57450  0.04316  1.0000
  C  Sn72      1.0  0.37966  0.54750  0.11268  1.0000
  O  Te69      1.0  0.32620  0.52255  0.25556  1.0000
  O  Te70      1.0  0.38224  0.63335  0.12044  1.0000
  O  Te71      1.0  0.43575  0.62847  0.97446  1.0000
  O  Te72      1.0  0.37897  0.51908  0.10960  1.0000
  Mg  Mg35      1.0  0.42461  0.66319  0.00887  1.0000
  Mg  Mg36      1.0  0.33662  0.48922  0.22101  1.0000
  C  Sn73      1.0  0.38977  0.78377  0.96630  1.0000
  C   C67       1.0  0.41117  0.77347  0.99487  1.0000
  C  Sn74      1.0  0.44079  0.79529  0.06996  1.0000
  C  Sn75      1.0  0.44992  0.82662  0.11763  1.0000
  C   C68       1.0  0.42853  0.83690  0.08910  1.0000
  C  Sn76      1.0  0.39820  0.81653  0.01397  1.0000
  O  Te73      1.0  0.35958  0.76299  0.89106  1.0000
  O  Te74      1.0  0.46177  0.78446  0.09717  1.0000
  O  Te75      1.0  0.48014  0.84740  0.19292  1.0000
  O  Te76      1.0  0.37793  0.82591  0.98680  1.0000
  Mg  Mg37      1.0  0.50027  0.82164  0.20384  1.0000
  Mg  Mg38      1.0  0.33942  0.78875  0.88025  1.0000
  C  Sn77      1.0  0.19751  0.64497  0.09845  1.0000
  C   C69       1.0  0.22454  0.64285  0.09180  1.0000
  C  Sn78      1.0  0.22327  0.61566  0.01718  1.0000
  C  Sn79      1.0  0.19508  0.58864  0.94760  1.0000
  C   C70       1.0  0.16807  0.59078  0.95423  1.0000
  C  Sn80      1.0  0.16862  0.61938  0.02887  1.0000
  O  Te77      1.0  0.19934  0.67238  0.17365  1.0000
  O  Te78      1.0  0.25060  0.61409  0.01211  1.0000
  O  Te79      1.0  0.19328  0.56123  0.87237  1.0000
  O  Te80      1.0  0.14131  0.62097  0.03392  1.0000
  Mg  Mg39      1.0  0.23690  0.57034  0.89614  1.0000
  Mg  Mg40      1.0  0.15569  0.66328  0.14974  1.0000
