data_image0
_chemical_formula_structural       H18C30N30O18SnCSn2CSnTe4Mg2SnCSn2CSnTe4Mg2SnCSn2CSnTe4Mg2SnCSn2CSnTe4Mg2SnCSn2CSnTe4Mg2SnCSn2CSnTe4Mg2SnCSn2CSnTe4Mg2SnCSn2CSnTe4Mg2SnCSn2CSnTe4Mg2SnCSn2CSnTe4Mg2SnCSn2CSnTe4Mg2SnCSn2CSnTe4Mg2SnCSn2CSnTe4Mg2SnCSn2CSnTe4Mg2SnCSn2CSnTe4Mg2SnCSn2CSnTe4Mg2SnCSn2CSnTe4Mg2SnCSn2CSnTe4Mg2SnCSn2CSnTe4Mg2SnCSn2CSnTe4Mg2SnCSn2CSnTe4Mg2SnCSn2CSnTe4Mg2SnCSn2CSnTe4Mg2SnCSn2CSnTe4Mg2
_chemical_formula_sum              "H18 C78 N30 O18 Sn96 Te96 Mg48"
_cell_length_a       50.7482
_cell_length_b       51.1313
_cell_length_c       7.97724
_cell_angle_alpha    121.32
_cell_angle_beta     76.5925
_cell_angle_gamma    120.352

_symmetry_space_group_name_H-M    'P1'
_space_group_IT_number       1

loop_
  _space_group_symop_operation_xyz
  'x, y, z'

loop_
  _atom_site_type_symbol
  _atom_site_label
  _atom_site_symmetry_multiplicity
  _atom_site_fract_x
  _atom_site_fract_y
  _atom_site_fract_z
  _atom_site_occupancy
  H   H1        1.0  0.16264  0.56969  0.59711  1.0000
  H   H2        1.0  0.45288  0.60319  0.42211  1.0000
  H   H3        1.0  0.41001  0.86654  0.56273  1.0000
  H   H4        1.0  0.01338  0.49113  0.62095  1.0000
  H   H5        1.0  0.51713  0.52296  0.45260  1.0000
  H   H6        1.0  0.48928  0.00516  0.45395  1.0000
  H   H7        1.0  0.85599  0.44754  0.44141  1.0000
  H   H8        1.0  0.55498  0.41226  0.56816  1.0000
  H   H9        1.0  0.60706  0.16563  0.49907  1.0000
  H   H10       1.0  0.14267  0.55650  0.06641  1.0000
  H   H11       1.0  0.44300  0.58388  0.94285  1.0000
  H   H12       1.0  0.39876  0.84249  0.08096  1.0000
  H   H13       1.0  0.99824  0.50667  0.11367  1.0000
  H   H14       1.0  0.51040  0.50283  0.94346  1.0000
  H   H15       1.0  0.47353  0.98031  0.96073  1.0000
  H   H16       1.0  0.83900  0.43326  0.90146  1.0000
  H   H17       1.0  0.54850  0.39568  0.09280  1.0000
  H   H18       1.0  0.59416  0.14085  0.00349  1.0000
  C   C1        1.0  0.31463  0.67511  0.46531  1.0000
  C   C2        1.0  0.34329  0.65408  0.47593  1.0000
  C   C3        1.0  0.36543  0.70231  0.45118  1.0000
  C   C4        1.0  0.16592  0.58454  0.52523  1.0000
  C   C5        1.0  0.42965  0.58971  0.46391  1.0000
  C   C6        1.0  0.42609  0.85557  0.50124  1.0000
  C   C7        1.0  0.99522  0.49922  0.45756  1.0000
  C   C8        1.0  0.48671  0.48049  0.48639  1.0000
  C   C9        1.0  0.53338  0.02882  0.55383  1.0000
  C   C10       1.0  0.84899  0.42932  0.49646  1.0000
  C   C11       1.0  0.57735  0.42795  0.52883  1.0000
  C   C12       1.0  0.58845  0.17265  0.53578  1.0000
  C   C13       1.0  0.69714  0.34678  0.50583  1.0000
  C   C14       1.0  0.66898  0.36756  0.48641  1.0000
  C   C15       1.0  0.64610  0.31826  0.50148  1.0000
  C   C16       1.0  0.30265  0.65134  0.96664  1.0000
  C   C17       1.0  0.33018  0.62947  0.98216  1.0000
  C   C18       1.0  0.35359  0.67858  0.96511  1.0000
  C   C19       1.0  0.15038  0.57576  0.01802  1.0000
  C   C20       1.0  0.41963  0.56821  0.97235  1.0000
  C   C21       1.0  0.41401  0.83057  0.00382  1.0000
  C   C22       1.0  0.98104  0.52154  0.99087  1.0000
  C   C23       1.0  0.48096  0.46230  0.99692  1.0000
  C   C24       1.0  0.51845  0.00322  0.04423  1.0000
  C   C25       1.0  0.83640  0.42035  0.98419  1.0000
  C   C26       1.0  0.57043  0.40870  0.03699  1.0000
  C   C27       1.0  0.57581  0.14807  0.03498  1.0000
  C   C28       1.0  0.68781  0.32397  0.00371  1.0000
  C   C29       1.0  0.65889  0.34446  0.99001  1.0000
  C   C30       1.0  0.63680  0.29557  0.00871  1.0000
  N   N1        1.0  0.33909  0.70202  0.45045  1.0000
  N   N2        1.0  0.31512  0.65059  0.47857  1.0000
  N   N3        1.0  0.36934  0.67899  0.46189  1.0000
  N   N4        1.0  0.14338  0.58298  0.46516  1.0000
  N   N5        1.0  0.42129  0.56511  0.50342  1.0000
  N   N6        1.0  0.45344  0.87211  0.45668  1.0000
  N   N7        1.0  0.01855  0.50080  0.52723  1.0000
  N   N8        1.0  0.49478  0.50962  0.47342  1.0000
  N   N9        1.0  0.50375  0.00227  0.50419  1.0000
  N   N10       1.0  0.86829  0.42515  0.54905  1.0000
  N   N11       1.0  0.58211  0.45187  0.49221  1.0000
  N   N12       1.0  0.56134  0.15359  0.57046  1.0000
  N   N13       1.0  0.67235  0.31944  0.51313  1.0000
  N   N14       1.0  0.69735  0.37196  0.49470  1.0000
  N   N15       1.0  0.64269  0.34130  0.48476  1.0000
  N   N16       1.0  0.32767  0.67816  0.95491  1.0000
  N   N17       1.0  0.30201  0.62599  0.97856  1.0000
  N   N18       1.0  0.35667  0.65527  0.98052  1.0000
  N   N19       1.0  0.13203  0.58251  0.97698  1.0000
  N   N20       1.0  0.41216  0.54286  0.00317  1.0000
  N   N21       1.0  0.44019  0.84617  0.94364  1.0000
  N   N22       1.0  0.00397  0.51768  0.02506  1.0000
  N   N23       1.0  0.48863  0.49082  0.97911  1.0000
  N   N24       1.0  0.48836  0.97749  0.00837  1.0000
  N   N25       1.0  0.85967  0.42629  0.06316  1.0000
  N   N26       1.0  0.57529  0.43097  0.98575  1.0000
  N   N27       1.0  0.54820  0.12875  0.06258  1.0000
  N   N28       1.0  0.66335  0.29649  0.01308  1.0000
  N   N29       1.0  0.68717  0.34855  0.99180  1.0000
  N   N30       1.0  0.63288  0.31899  0.99850  1.0000
  O   O1        1.0  0.28802  0.67515  0.46448  1.0000
  O   O2        1.0  0.34214  0.62848  0.49147  1.0000
  O   O3        1.0  0.39231  0.72708  0.43540  1.0000
  O   O4        1.0  0.72292  0.34576  0.51192  1.0000
  O   O5        1.0  0.66979  0.39363  0.47688  1.0000
  O   O6        1.0  0.61898  0.29285  0.50864  1.0000
  O   O7        1.0  0.00019  0.51331  0.35686  1.0000
  O   O8        1.0  0.46016  0.46051  0.49805  1.0000
  O   O9        1.0  0.55399  0.02746  0.60116  1.0000
  O   O10       1.0  0.27707  0.65308  0.96469  1.0000
  O   O11       1.0  0.32904  0.60322  0.99066  1.0000
  O   O12       1.0  0.38095  0.70365  0.95573  1.0000
  O   O13       1.0  0.71456  0.32453  0.00932  1.0000
  O   O14       1.0  0.65991  0.37019  0.97525  1.0000
  O   O15       1.0  0.60978  0.27022  0.01667  1.0000
  O   O16       1.0  0.98537  0.54206  0.93641  1.0000
  O   O17       1.0  0.45454  0.44312  0.01813  1.0000
  O   O18       1.0  0.53928  0.00109  0.08325  1.0000
  C  Sn1       1.0  0.24502  0.61047  0.44946  1.0000
  C   C31       1.0  0.25664  0.63936  0.42356  1.0000
  C  Sn2       1.0  0.23863  0.65510  0.45872  1.0000
  C  Sn3       1.0  0.20838  0.64170  0.52118  1.0000
  C   C32       1.0  0.19678  0.61283  0.54708  1.0000
  C  Sn4       1.0  0.21477  0.59707  0.51193  1.0000
  O  Te1       1.0  0.26343  0.59516  0.41346  1.0000
  O  Te2       1.0  0.25074  0.68395  0.43174  1.0000
  O  Te3       1.0  0.18997  0.65704  0.55717  1.0000
  O  Te4       1.0  0.20267  0.56824  0.53890  1.0000
  Mg  Mg1       1.0  0.21674  0.69580  0.49973  1.0000
  Mg  Mg2       1.0  0.23666  0.55638  0.47105  1.0000
  C  Sn5       1.0  0.41629  0.64005  0.50682  1.0000
  C   C33       1.0  0.41046  0.61151  0.52127  1.0000
  C  Sn6       1.0  0.38059  0.58537  0.50053  1.0000
  C  Sn7       1.0  0.35602  0.58779  0.46448  1.0000
  C   C34       1.0  0.36186  0.61631  0.45001  1.0000
  C  Sn8       1.0  0.39173  0.64247  0.47076  1.0000
  O  Te5       1.0  0.44635  0.66587  0.52803  1.0000
  O  Te6       1.0  0.37532  0.55709  0.51564  1.0000
  O  Te7       1.0  0.32595  0.56193  0.44327  1.0000
  O  Te8       1.0  0.39700  0.67073  0.45565  1.0000
  Mg  Mg3       1.0  0.33040  0.52851  0.47586  1.0000
  Mg  Mg4       1.0  0.44191  0.69931  0.49530  1.0000
  C  Sn9       1.0  0.42895  0.79276  0.32198  1.0000
  C   C35       1.0  0.41442  0.81365  0.41678  1.0000
  C  Sn10      1.0  0.39144  0.80751  0.54739  1.0000
  C  Sn11      1.0  0.38280  0.77993  0.58413  1.0000
  C   C36       1.0  0.39733  0.75907  0.48939  1.0000
  C  Sn12      1.0  0.42031  0.76519  0.35872  1.0000
  O  Te9       1.0  0.45187  0.79937  0.19198  1.0000
  O  Te10      1.0  0.37724  0.82873  0.64036  1.0000
  O  Te11      1.0  0.35986  0.77333  0.71425  1.0000
  O  Te12      1.0  0.43451  0.74399  0.26581  1.0000
  Mg  Mg5       1.0  0.34729  0.80940  0.80511  1.0000
  Mg  Mg6       1.0  0.46447  0.76330  0.10112  1.0000
  C  Sn13      1.0  0.06542  0.55229  0.44345  1.0000
  C   C37       1.0  0.05118  0.52205  0.45875  1.0000
  C  Sn14      1.0  0.06842  0.51195  0.50329  1.0000
  C  Sn15      1.0  0.10058  0.53250  0.53330  1.0000
  C   C38       1.0  0.11481  0.56272  0.51804  1.0000
  C  Sn16      1.0  0.09758  0.57284  0.47346  1.0000
  O  Te13      1.0  0.04773  0.56189  0.39879  1.0000
  O  Te14      1.0  0.05366  0.48161  0.51774  1.0000
  O  Te15      1.0  0.11827  0.52287  0.57799  1.0000
  O  Te16      1.0  0.11233  0.60316  0.45904  1.0000
  Mg  Mg7       1.0  0.08766  0.47937  0.58182  1.0000
  Mg  Mg8       1.0  0.07835  0.60543  0.39507  1.0000
  C  Sn17      1.0  0.43143  0.52509  0.58208  1.0000
  C   C39       1.0  0.44126  0.55368  0.55653  1.0000
  C  Sn18      1.0  0.46931  0.56613  0.47394  1.0000
  C  Sn19      1.0  0.48792  0.54965  0.41554  1.0000
  C   C40       1.0  0.47809  0.52107  0.44107  1.0000
  C  Sn20      1.0  0.45004  0.50861  0.52369  1.0000
  O  Te17      1.0  0.40330  0.51309  0.66496  1.0000
  O  Te18      1.0  0.47866  0.59476  0.44993  1.0000
  O  Te19      1.0  0.51607  0.56168  0.33262  1.0000
  O  Te20      1.0  0.44069  0.47999  0.54767  1.0000
  Mg  Mg9       1.0  0.51883  0.60148  0.32995  1.0000
  Mg  Mg10      1.0  0.40051  0.47324  0.66753  1.0000
  C  Sn21      1.0  0.45346  0.94499  0.50598  1.0000
  C   C41       1.0  0.48418  0.96983  0.54549  1.0000
  C  Sn22      1.0  0.50670  0.96104  0.53506  1.0000
  C  Sn23      1.0  0.49836  0.92671  0.48396  1.0000
  C   C42       1.0  0.46766  0.90190  0.44445  1.0000
  C  Sn24      1.0  0.44512  0.91066  0.45487  1.0000
  O  Te21      1.0  0.43133  0.95435  0.51728  1.0000
  O  Te22      1.0  0.53726  0.98632  0.57527  1.0000
  O  Te23      1.0  0.52053  0.91737  0.47269  1.0000
  O  Te24      1.0  0.41458  0.88540  0.41467  1.0000
  Mg  Mg11      1.0  0.55908  0.96095  0.54043  1.0000
  Mg  Mg12      1.0  0.39275  0.91074  0.44936  1.0000
  C  Sn25      1.0  0.94300  0.43919  0.45733  1.0000
  C   C43       1.0  0.95974  0.47076  0.45629  1.0000
  C  Sn26      1.0  0.94687  0.49285  0.52088  1.0000
  C  Sn27      1.0  0.91665  0.48318  0.58804  1.0000
  C   C44       1.0  0.89993  0.45163  0.58909  1.0000
  C  Sn28      1.0  0.91278  0.42952  0.52449  1.0000
  O  Te25      1.0  0.95632  0.41752  0.39211  1.0000
  O  Te26      1.0  0.96405  0.52428  0.51840  1.0000
  O  Te27      1.0  0.90333  0.50489  0.65328  1.0000
  O  Te28      1.0  0.89562  0.39811  0.52698  1.0000
  Mg  Mg13      1.0  0.93589  0.54501  0.62188  1.0000
  Mg  Mg14      1.0  0.92376  0.37737  0.42363  1.0000
  C  Sn29      1.0  0.54887  0.48928  0.41197  1.0000
  C   C45       1.0  0.51743  0.47313  0.43527  1.0000
  C  Sn30      1.0  0.50516  0.44984  0.50839  1.0000
  C  Sn31      1.0  0.52473  0.44253  0.55940  1.0000
  C   C46       1.0  0.55616  0.45867  0.53612  1.0000
  C  Sn32      1.0  0.56844  0.48197  0.46297  1.0000
  O  Te29      1.0  0.56064  0.51248  0.33862  1.0000
  O  Te30      1.0  0.47365  0.43401  0.53033  1.0000
  O  Te31      1.0  0.51294  0.41931  0.63279  1.0000
  O  Te32      1.0  0.59993  0.49780  0.44106  1.0000
  Mg  Mg15      1.0  0.46851  0.40431  0.63625  1.0000
  Mg  Mg16      1.0  0.60510  0.52751  0.33526  1.0000
  C  Sn33      1.0  0.51991  0.09517  0.59539  1.0000
  C   C47       1.0  0.54926  0.12220  0.61602  1.0000
  C  Sn34      1.0  0.57491  0.11722  0.58812  1.0000
  C  Sn35      1.0  0.57115  0.08452  0.53843  1.0000
  C   C48       1.0  0.54181  0.05751  0.51779  1.0000
  C  Sn36      1.0  0.51614  0.06247  0.54570  1.0000
  O  Te33      1.0  0.49458  0.10073  0.62395  1.0000
  O  Te34      1.0  0.60403  0.14464  0.60962  1.0000
  O  Te35      1.0  0.59650  0.07898  0.50988  1.0000
  O  Te36      1.0  0.99616  0.03507  0.52419  1.0000
  Mg  Mg17      1.0  0.63145  0.12431  0.55560  1.0000
  Mg  Mg18      1.0  0.45961  0.05536  0.57808  1.0000
  C  Sn37      1.0  0.78087  0.36581  0.56825  1.0000
  C   C49       1.0  0.75736  0.37175  0.55867  1.0000
  C  Sn38      1.0  0.76318  0.39553  0.49993  1.0000
  C  Sn39      1.0  0.79310  0.41375  0.44958  1.0000
  C   C50       1.0  0.81658  0.40780  0.45914  1.0000
  C  Sn40      1.0  0.81079  0.38403  0.51790  1.0000
  O  Te37      1.0  0.77453  0.34192  0.62735  1.0000
  O  Te38      1.0  0.73931  0.40104  0.49156  1.0000
  O  Te39      1.0  0.79942  0.43766  0.39045  1.0000
  O  Te40      1.0  0.83464  0.37851  0.52625  1.0000
  Mg  Mg19      1.0  0.75933  0.43619  0.40225  1.0000
  Mg  Mg20      1.0  0.81464  0.34336  0.61544  1.0000
  C  Sn41      1.0  0.59856  0.39321  0.59868  1.0000
  C   C51       1.0  0.60250  0.42016  0.57479  1.0000
  C  Sn42      1.0  0.62828  0.43548  0.48495  1.0000
  C  Sn43      1.0  0.65057  0.42359  0.41745  1.0000
  C   C52       1.0  0.64662  0.39664  0.44132  1.0000
  C  Sn44      1.0  0.62085  0.38132  0.53119  1.0000
  O  Te41      1.0  0.57262  0.37828  0.68891  1.0000
  O  Te42      1.0  0.63172  0.46240  0.46276  1.0000
  O  Te43      1.0  0.67653  0.43855  0.32718  1.0000
  O  Te44      1.0  0.61740  0.35441  0.55335  1.0000
  Mg  Mg21      1.0  0.67096  0.47443  0.33048  1.0000
  Mg  Mg22      1.0  0.57817  0.34234  0.68552  1.0000
  C  Sn45      1.0  0.57316  0.21516  0.49347  1.0000
  C   C53       1.0  0.59177  0.20177  0.48638  1.0000
  C  Sn46      1.0  0.62343  0.22223  0.51534  1.0000
  C  Sn47      1.0  0.63676  0.25680  0.55228  1.0000
  C   C54       1.0  0.61815  0.27017  0.55939  1.0000
  C  Sn48      1.0  0.58649  0.24973  0.53041  1.0000
  O  Te45      1.0  0.54156  0.19424  0.46411  1.0000
  O  Te46      1.0  0.64157  0.20827  0.50750  1.0000
  O  Te47      1.0  0.66838  0.27772  0.58165  1.0000
  O  Te48      1.0  0.56835  0.26367  0.53827  1.0000
  Mg  Mg23      1.0  0.68348  0.24700  0.55700  1.0000
  Mg  Mg24      1.0  0.52645  0.22498  0.48889  1.0000
  C  Sn49      1.0  0.20131  0.62467  0.92706  1.0000
  C   C55       1.0  0.18554  0.59513  0.94994  1.0000
  C  Sn50      1.0  0.19471  0.50066  0.00809  1.0000
  C  Sn51      1.0  0.22683  0.52051  0.04426  1.0000
  C   C56       1.0  0.24259  0.55004  0.02142  1.0000
  C  Sn52      1.0  0.23343  0.64452  0.96323  1.0000
  O  Te49      1.0  0.18517  0.63429  0.86881  1.0000
  O  Te50      1.0  0.17845  0.47102  0.02992  1.0000
  O  Te51      1.0  0.24296  0.51086  0.10255  1.0000
  O  Te52      1.0  0.24968  0.67415  0.94144  1.0000
  Mg  Mg25      1.0  0.21064  0.46846  0.11220  1.0000
  Mg  Mg26      1.0  0.21751  0.67674  0.85926  1.0000
  C  Sn53      1.0  0.39772  0.53217  0.00749  1.0000
  C   C57       1.0  0.39265  0.50418  0.02498  1.0000
  C  Sn54      1.0  0.36301  0.47786  0.00793  1.0000
  C  Sn55      1.0  0.34441  0.56389  0.97253  1.0000
  C   C58       1.0  0.34949  0.59187  0.95502  1.0000
  C  Sn56      1.0  0.37912  0.61821  0.97209  1.0000
  O  Te53      1.0  0.42755  0.55820  0.02504  1.0000
  O  Te54      1.0  0.35851  0.45014  0.02603  1.0000
  O  Te55      1.0  0.31457  0.53784  0.95499  1.0000
  O  Te56      1.0  0.38363  0.64591  0.95398  1.0000
  Mg  Mg27      1.0  0.32012  0.50537  0.99072  1.0000
  Mg  Mg28      1.0  0.42851  0.67504  0.98915  1.0000
  C  Sn57      1.0  0.42036  0.75850  0.91148  1.0000
  C   C59       1.0  0.39432  0.74020  0.98707  1.0000
  C  Sn58      1.0  0.36383  0.66437  0.04762  1.0000
  C  Sn59      1.0  0.36589  0.69176  0.03220  1.0000
  C   C60       1.0  0.39841  0.79440  0.95662  1.0000
  C  Sn60      1.0  0.42242  0.78589  0.89606  1.0000
  O  Te57      1.0  0.44407  0.74953  0.85183  1.0000
  O  Te58      1.0  0.33803  0.64571  0.12278  1.0000
  O  Te59      1.0  0.34215  0.70072  0.09193  1.0000
  O  Te60      1.0  0.44820  0.80453  0.82091  1.0000
  Mg  Mg29      1.0  0.31172  0.66766  0.18449  1.0000
  Mg  Mg30      1.0  0.47451  0.78259  0.75906  1.0000
  C  Sn61      1.0  0.05734  0.56310  0.92194  1.0000
  C   C61       1.0  0.03796  0.53464  0.95225  1.0000
  C  Sn62      1.0  0.04336  0.43789  0.01997  1.0000
  C  Sn63      1.0  0.07528  0.45430  0.05832  1.0000
  C   C62       1.0  0.09464  0.48275  0.02805  1.0000
  C  Sn64      1.0  0.08926  0.57952  0.96030  1.0000
  O  Te61      1.0  0.04495  0.57506  0.85418  1.0000
  O  Te62      1.0  0.02353  0.40938  0.04909  1.0000
  O  Te63      1.0  0.08766  0.44232  0.12612  1.0000
  O  Te64      1.0  0.10907  0.60801  0.93121  1.0000
  Mg  Mg31      1.0  0.05135  0.40269  0.14321  1.0000
  Mg  Mg32      1.0  0.08128  0.61473  0.83720  1.0000
  C  Sn65      1.0  0.43687  0.56844  0.97098  1.0000
  C   C63       1.0  0.46807  0.57940  0.93798  1.0000
  C  Sn66      1.0  0.48685  0.61207  0.95268  1.0000
  C  Sn67      1.0  0.46770  0.54989  0.00149  1.0000
  C   C64       1.0  0.43653  0.53893  0.03449  1.0000
  C  Sn68      1.0  0.41772  0.50627  0.01979  1.0000
  O  Te65      1.0  0.41852  0.53568  0.95550  1.0000
  O  Te66      1.0  0.51797  0.62244  0.91897  1.0000
  O  Te67      1.0  0.48608  0.58268  0.01695  1.0000
  O  Te68      1.0  0.38662  0.49589  0.05351  1.0000
  Mg  Mg33      1.0  0.53361  0.66947  0.95762  1.0000
  Mg  Mg34      1.0  0.37097  0.44888  0.01500  1.0000
  C  Sn69      1.0  0.43287  0.83614  0.02099  1.0000
  C   C65       1.0  0.46378  0.86002  0.04260  1.0000
  C  Sn70      1.0  0.48633  0.84997  0.00844  1.0000
  C  Sn71      1.0  0.48429  0.89968  0.95137  1.0000
  C   C66       1.0  0.45340  0.87581  0.92975  1.0000
  C  Sn72      1.0  0.43083  0.88584  0.96392  1.0000
  O  Te69      1.0  0.41071  0.84675  0.05588  1.0000
  O  Te70      1.0  0.51709  0.87432  0.03106  1.0000
  O  Te71      1.0  0.50648  0.88908  0.91648  1.0000
  O  Te72      1.0  0.40009  0.86152  0.94129  1.0000
  Mg  Mg35      1.0  0.54534  0.93173  0.96663  1.0000
  Mg  Mg36      1.0  0.37182  0.80407  0.00558  1.0000
  C  Sn73      1.0  0.94297  0.54026  0.97293  1.0000
  C   C67       1.0  0.95336  0.57052  0.96374  1.0000
  C  Sn74      1.0  0.92828  0.50208  0.02047  1.0000
  C  Sn75      1.0  0.89869  0.48746  0.08792  1.0000
  C   C68       1.0  0.88832  0.45722  0.09712  1.0000
  C  Sn76      1.0  0.90688  0.44128  0.04038  1.0000
  O  Te73      1.0  0.96193  0.52479  0.91549  1.0000
  O  Te74      1.0  0.93917  0.53231  0.00992  1.0000
  O  Te75      1.0  0.87973  0.50296  0.14538  1.0000
  O  Te76      1.0  0.89601  0.41107  0.05094  1.0000
  Mg  Mg37      1.0  0.90481  0.54382  0.10462  1.0000
  Mg  Mg38      1.0  0.93685  0.48391  0.95638  1.0000
  C  Sn77      1.0  0.54324  0.47054  0.91543  1.0000
  C   C69       1.0  0.51164  0.45379  0.93179  1.0000
  C  Sn78      1.0  0.49885  0.42927  0.99629  1.0000
  C  Sn79      1.0  0.51155  0.33698  0.04561  1.0000
  C   C70       1.0  0.54313  0.35372  0.02928  1.0000
  C  Sn80      1.0  0.56244  0.46260  0.96474  1.0000
  O  Te77      1.0  0.55552  0.49496  0.85064  1.0000
  O  Te78      1.0  0.46070  0.32851  0.01139  1.0000
  O  Te79      1.0  0.49924  0.31253  0.11044  1.0000
  O  Te80      1.0  0.59407  0.47901  0.94967  1.0000
  Mg  Mg39      1.0  0.45481  0.29714  0.10678  1.0000
  Mg  Mg40      1.0  0.59999  0.51040  0.85440  1.0000
  C  Sn81      1.0  0.55641  0.07277  0.15541  1.0000
  C   C71       1.0  0.52783  0.04353  0.10001  1.0000
  C  Sn82      1.0  0.50570  0.04019  0.00366  1.0000
  C  Sn83      1.0  0.51877  0.15097  0.96168  1.0000
  C   C72       1.0  0.54084  0.09583  0.01703  1.0000
  C  Sn84      1.0  0.56299  0.09919  0.11342  1.0000
  O  Te81      1.0  0.57819  0.07557  0.25158  1.0000
  O  Te82      1.0  0.48378  0.09508  0.94979  1.0000
  O  Te83      1.0  0.49696  0.14815  0.86543  1.0000
  O  Te84      1.0  0.59138  0.12863  0.16725  1.0000
  Mg  Mg41      1.0  0.46163  0.10314  0.82156  1.0000
  Mg  Mg42      1.0  0.61356  0.12059  0.29539  1.0000
  C  Sn85      1.0  0.76789  0.31791  0.02420  1.0000
  C   C73       1.0  0.79413  0.31667  0.03846  1.0000
  C  Sn86      1.0  0.79193  0.28695  0.02035  1.0000
  C  Sn87      1.0  0.76939  0.34219  0.98717  1.0000
  C   C74       1.0  0.74317  0.34343  0.97290  1.0000
  C  Sn88      1.0  0.74535  0.37315  0.99102  1.0000
  O  Te85      1.0  0.77063  0.34790  0.04275  1.0000
  O  Te86      1.0  0.81848  0.28633  0.03521  1.0000
  O  Te87      1.0  0.76667  0.31219  0.96863  1.0000
  O  Te88      1.0  0.71882  0.37378  0.97615  1.0000
  Mg  Mg43      1.0  0.80946  0.32389  0.99970  1.0000
  Mg  Mg44      1.0  0.72782  0.33619  0.01152  1.0000
  C  Sn89      1.0  0.63757  0.33131  0.01956  1.0000
  C   C75       1.0  0.63278  0.30382  0.04126  1.0000
  C  Sn90      1.0  0.60314  0.27833  0.03552  1.0000
  C  Sn91      1.0  0.57777  0.28035  0.00739  1.0000
  C   C76       1.0  0.58907  0.39219  0.98567  1.0000
  C  Sn92      1.0  0.61870  0.41769  0.99142  1.0000
  O  Te89      1.0  0.66740  0.35650  0.02577  1.0000
  O  Te90      1.0  0.59892  0.25110  0.05764  1.0000
  O  Te91      1.0  0.54793  0.25514  0.00119  1.0000
  O  Te92      1.0  0.62293  0.44491  0.96929  1.0000
  Mg  Mg45      1.0  0.55391  0.22308  0.03843  1.0000
  Mg  Mg46      1.0  0.66792  0.47293  0.98837  1.0000
  C  Sn93      1.0  0.57047  0.21994  0.10450  1.0000
  C   C77       1.0  0.60003  0.24225  0.08045  1.0000
  C  Sn94      1.0  0.62282  0.23179  0.01493  1.0000
  C  Sn95      1.0  0.62242  0.28268  0.97244  1.0000
  C   C78       1.0  0.59287  0.26039  0.99646  1.0000
  C  Sn96      1.0  0.56356  0.18648  0.06201  1.0000
  O  Te93      1.0  0.54804  0.23094  0.17016  1.0000
  O  Te94      1.0  0.65870  0.33891  0.99208  1.0000
  O  Te95      1.0  0.64488  0.27170  0.90674  1.0000
  O  Te96      1.0  0.53419  0.16374  0.08483  1.0000
  Mg  Mg47      1.0  0.68147  0.31202  0.89860  1.0000
  Mg  Mg48      1.0  0.51141  0.19059  0.17819  1.0000
