data_image0
_chemical_formula_structural       H48C96N32O16C2Sn2C2HTe2HMgC2Sn2C2HTe2HMgC2Sn2C2HTe2HMgC2Sn2C2HTe2HMgC2Sn2C2HTe2HMgC2Sn2C2HTe2HMgC2Sn2C2HTe2HMgC2Sn2C2HTe2HMgC2Sn2C2HTe2HMgC2Sn2C2HTe2HMgC2Sn2C2HTe2HMgC2Sn2C2HTe2HMgC2Sn2C2HTe2HMgC2Sn2C2HTe2HMgC2Sn2C2HTe2HMgC2Sn2C2HTe2HMgC2Sn2C2HTe2HMgC2Sn2C2HTe2HMgC2Sn2C2HTe2HMgC2Sn2C2HTe2HMgC2Sn2C2HTe2HMgC2Sn2C2HTe2HMgC2Sn2C2HTe2HMgC2Sn2C2HTe2HMg
_chemical_formula_sum              "H96 C192 N32 O16 Sn48 Te48 Mg24"
_cell_length_a       38.1401
_cell_length_b       42.5475
_cell_length_c       8.00083
_cell_angle_alpha    113.489
_cell_angle_beta     90.2242
_cell_angle_gamma    90.0036

_symmetry_space_group_name_H-M    'P1'
_space_group_IT_number       1

loop_
  _space_group_symop_operation_xyz
  'x, y, z'

loop_
  _atom_site_type_symbol
  _atom_site_label
  _atom_site_symmetry_multiplicity
  _atom_site_fract_x
  _atom_site_fract_y
  _atom_site_fract_z
  _atom_site_occupancy
  H   H1        1.0  0.53100  0.43007  0.08074  1.0000
  H   H2        1.0  0.46858  0.58770  0.08038  1.0000
  H   H3        1.0  0.53188  0.58719  0.08306  1.0000
  H   H4        1.0  0.46662  0.42989  0.07586  1.0000
  H   H5        1.0  0.03012  0.92786  0.06172  1.0000
  H   H6        1.0  0.96872  0.08712  0.07804  1.0000
  H   H7        1.0  0.03202  0.08610  0.07176  1.0000
  H   H8        1.0  0.96596  0.92842  0.06250  1.0000
  H   H9        1.0  0.35051  0.33300  0.39588  1.0000
  H   H10       1.0  0.64365  0.65986  0.44797  1.0000
  H   H11       1.0  0.35632  0.65824  0.43395  1.0000
  H   H12       1.0  0.65142  0.33092  0.37196  1.0000
  H   H13       1.0  0.84959  0.82969  0.35075  1.0000
  H   H14       1.0  0.13941  0.16125  0.42028  1.0000
  H   H15       1.0  0.85532  0.15743  0.44878  1.0000
  H   H16       1.0  0.14989  0.83167  0.38923  1.0000
  H   H17       1.0  0.23253  0.17904  0.13034  1.0000
  H   H18       1.0  0.77151  0.84152  0.13407  1.0000
  H   H19       1.0  0.22182  0.83761  0.13557  1.0000
  H   H20       1.0  0.77128  0.18395  0.14305  1.0000
  H   H21       1.0  0.73274  0.67772  0.10769  1.0000
  H   H22       1.0  0.27561  0.33927  0.15275  1.0000
  H   H23       1.0  0.72956  0.34374  0.13942  1.0000
  H   H24       1.0  0.26601  0.67907  0.12883  1.0000
  H   H25       1.0  0.53370  0.42489  0.56272  1.0000
  H   H26       1.0  0.46990  0.58549  0.60416  1.0000
  H   H27       1.0  0.53346  0.58471  0.58554  1.0000
  H   H28       1.0  0.46914  0.42473  0.56048  1.0000
  H   H29       1.0  0.03538  0.92492  0.55276  1.0000
  H   H30       1.0  0.96819  0.08405  0.59186  1.0000
  H   H31       1.0  0.03198  0.08511  0.59236  1.0000
  H   H32       1.0  0.97085  0.92457  0.56013  1.0000
  H   H33       1.0  0.35163  0.33335  0.88200  1.0000
  H   H34       1.0  0.64568  0.66015  0.93143  1.0000
  H   H35       1.0  0.35092  0.65954  0.93188  1.0000
  H   H36       1.0  0.64866  0.33575  0.89962  1.0000
  H   H37       1.0  0.85176  0.83352  0.88906  1.0000
  H   H38       1.0  0.14685  0.15885  0.93582  1.0000
  H   H39       1.0  0.85506  0.16209  0.93429  1.0000
  H   H40       1.0  0.14528  0.83065  0.86374  1.0000
  H   H41       1.0  0.22280  0.18575  0.64119  1.0000
  H   H42       1.0  0.77236  0.83986  0.61983  1.0000
  H   H43       1.0  0.22643  0.83797  0.65613  1.0000
  H   H44       1.0  0.76933  0.17751  0.63766  1.0000
  H   H45       1.0  0.73281  0.67619  0.60177  1.0000
  H   H46       1.0  0.27042  0.34337  0.64199  1.0000
  H   H47       1.0  0.72806  0.33835  0.64228  1.0000
  H   H48       1.0  0.26966  0.67697  0.61434  1.0000
  C   C1        1.0  0.51696  0.44933  0.04996  1.0000
  C   C2        1.0  0.48196  0.56345  0.04522  1.0000
  C   C3        1.0  0.51785  0.56317  0.04548  1.0000
  C   C4        1.0  0.48098  0.44928  0.04765  1.0000
  C   C5        1.0  0.01622  0.94767  0.03511  1.0000
  C   C6        1.0  0.98203  0.06276  0.04054  1.0000
  C   C7        1.0  0.01795  0.06219  0.03737  1.0000
  C   C8        1.0  0.98025  0.94808  0.03631  1.0000
  C   C9        1.0  0.53648  0.47515  0.02102  1.0000
  C   C10       1.0  0.46199  0.53309  0.00829  1.0000
  C   C11       1.0  0.53721  0.53244  0.00615  1.0000
  C   C12       1.0  0.46180  0.47517  0.01697  1.0000
  C   C13       1.0  0.03588  0.97351  0.00689  1.0000
  C   C14       1.0  0.96189  0.03253  0.00330  1.0000
  C   C15       1.0  0.03716  0.03142  0.99894  1.0000
  C   C16       1.0  0.96128  0.97458  0.01042  1.0000
  C   C17       1.0  0.42662  0.47138  0.50580  1.0000
  C   C18       1.0  0.57650  0.52838  0.48988  1.0000
  C   C19       1.0  0.42624  0.52945  0.50110  1.0000
  C   C20       1.0  0.57625  0.47138  0.50840  1.0000
  C   C21       1.0  0.92739  0.96936  0.49551  1.0000
  C   C22       1.0  0.07591  0.02929  0.48374  1.0000
  C   C23       1.0  0.92571  0.02725  0.48877  1.0000
  C   C24       1.0  0.07707  0.97149  0.49346  1.0000
  C   C25       1.0  0.34061  0.35855  0.47748  1.0000
  C   C26       1.0  0.65775  0.64215  0.49193  1.0000
  C   C27       1.0  0.34340  0.64152  0.48838  1.0000
  C   C28       1.0  0.65984  0.35584  0.47118  1.0000
  C   C29       1.0  0.84086  0.85499  0.44341  1.0000
  C   C30       1.0  0.15278  0.14513  0.47745  1.0000
  C   C31       1.0  0.84216  0.14080  0.50345  1.0000
  C   C32       1.0  0.15988  0.85684  0.47783  1.0000
  C   C33       1.0  0.69722  0.70405  0.01861  1.0000
  C   C34       1.0  0.30456  0.29836  0.98369  1.0000
  C   C35       1.0  0.69791  0.30243  0.99707  1.0000
  C   C36       1.0  0.29971  0.70332  0.01831  1.0000
  C   C37       1.0  0.19847  0.20339  0.02182  1.0000
  C   C38       1.0  0.80295  0.80004  0.99202  1.0000
  C   C39       1.0  0.19263  0.79623  0.96934  1.0000
  C   C40       1.0  0.80491  0.20785  0.02963  1.0000
  C   C41       1.0  0.48051  0.50383  0.00988  1.0000
  C   C42       1.0  0.51817  0.50364  0.01017  1.0000
  C   C43       1.0  0.98022  0.00314  0.00390  1.0000
  C   C44       1.0  0.01789  0.00261  0.00180  1.0000
  C   C45       1.0  0.41125  0.50019  0.50365  1.0000
  C   C46       1.0  0.59158  0.49976  0.50056  1.0000
  C   C47       1.0  0.91123  0.99813  0.49573  1.0000
  C   C48       1.0  0.09170  0.00052  0.48939  1.0000
  C   C49       1.0  0.51936  0.44512  0.54206  1.0000
  C   C50       1.0  0.48365  0.56129  0.56296  1.0000
  C   C51       1.0  0.51945  0.56082  0.55386  1.0000
  C   C52       1.0  0.48346  0.44494  0.53967  1.0000
  C   C53       1.0  0.02062  0.94459  0.52906  1.0000
  C   C54       1.0  0.98254  0.06019  0.55217  1.0000
  C   C55       1.0  0.01836  0.06084  0.55387  1.0000
  C   C56       1.0  0.98475  0.94437  0.53329  1.0000
  C   C57       1.0  0.53870  0.47196  0.52091  1.0000
  C   C58       1.0  0.46377  0.53078  0.52405  1.0000
  C   C59       1.0  0.53896  0.52991  0.51136  1.0000
  C   C60       1.0  0.46415  0.47168  0.51691  1.0000
  C   C61       1.0  0.03941  0.97116  0.50163  1.0000
  C   C62       1.0  0.96338  0.02897  0.50613  1.0000
  C   C63       1.0  0.03853  0.03038  0.51028  1.0000
  C   C64       1.0  0.96485  0.97062  0.50956  1.0000
  C   C65       1.0  0.42410  0.47448  0.00441  1.0000
  C   C66       1.0  0.57485  0.53085  0.98683  1.0000
  C   C67       1.0  0.42438  0.53181  0.98922  1.0000
  C   C68       1.0  0.57411  0.47445  0.00968  1.0000
  C   C69       1.0  0.92360  0.97435  0.99854  1.0000
  C   C70       1.0  0.07484  0.02944  0.97744  1.0000
  C   C71       1.0  0.92426  0.03157  0.98297  1.0000
  C   C72       1.0  0.07349  0.97228  0.99329  1.0000
  C   C73       1.0  0.34187  0.35830  0.97479  1.0000
  C   C74       1.0  0.65829  0.64311  0.98500  1.0000
  C   C75       1.0  0.33908  0.64330  0.99242  1.0000
  C   C76       1.0  0.65921  0.36095  0.98352  1.0000
  C   C77       1.0  0.84090  0.85874  0.97137  1.0000
  C   C78       1.0  0.16000  0.14181  0.98789  1.0000
  C   C79       1.0  0.84298  0.14624  0.99653  1.0000
  C   C80       1.0  0.15507  0.85569  0.95497  1.0000
  C   C81       1.0  0.69729  0.70212  0.50816  1.0000
  C   C82       1.0  0.30043  0.30126  0.49281  1.0000
  C   C83       1.0  0.69522  0.29752  0.51024  1.0000
  C   C84       1.0  0.30453  0.70246  0.51595  1.0000
  C   C85       1.0  0.19117  0.20706  0.50588  1.0000
  C   C86       1.0  0.80360  0.79804  0.48618  1.0000
  C   C87       1.0  0.19762  0.79704  0.48355  1.0000
  C   C88       1.0  0.80329  0.20244  0.53311  1.0000
  C   C89       1.0  0.48260  0.50116  0.51885  1.0000
  C   C90       1.0  0.52024  0.50099  0.51675  1.0000
  C   C91       1.0  0.98275  0.99991  0.50539  1.0000
  C   C92       1.0  0.02034  0.00041  0.50446  1.0000
  C   C93       1.0  0.40911  0.50262  0.99206  1.0000
  C   C94       1.0  0.58985  0.50213  0.99573  1.0000
  C   C95       1.0  0.90863  0.00249  0.98543  1.0000
  C   C96       1.0  0.08928  0.00009  0.98155  1.0000
  N   N1        1.0  0.68997  0.64859  0.05293  1.0000
  N   N2        1.0  0.31427  0.36156  0.07567  1.0000
  N   N3        1.0  0.68844  0.36506  0.07444  1.0000
  N   N4        1.0  0.30820  0.64941  0.06728  1.0000
  N   N5        1.0  0.19123  0.14816  0.06059  1.0000
  N   N6        1.0  0.81174  0.86268  0.06191  1.0000
  N   N7        1.0  0.18289  0.85929  0.05603  1.0000
  N   N8        1.0  0.81266  0.15351  0.07684  1.0000
  N   N9        1.0  0.20894  0.17671  0.06730  1.0000
  N   N10       1.0  0.79336  0.83437  0.05544  1.0000
  N   N11       1.0  0.20111  0.83092  0.04810  1.0000
  N   N12       1.0  0.79457  0.18151  0.07871  1.0000
  N   N13       1.0  0.70828  0.67642  0.05431  1.0000
  N   N14       1.0  0.29629  0.33289  0.06590  1.0000
  N   N15       1.0  0.70732  0.33680  0.06327  1.0000
  N   N16       1.0  0.28950  0.67681  0.06560  1.0000
  N   N17       1.0  0.69022  0.64712  0.54918  1.0000
  N   N18       1.0  0.31164  0.36360  0.57023  1.0000
  N   N19       1.0  0.68716  0.35973  0.57573  1.0000
  N   N20       1.0  0.31196  0.64751  0.55691  1.0000
  N   N21       1.0  0.18322  0.15312  0.55771  1.0000
  N   N22       1.0  0.81327  0.85979  0.54598  1.0000
  N   N23       1.0  0.18789  0.86038  0.57753  1.0000
  N   N24       1.0  0.81101  0.14740  0.57542  1.0000
  N   N25       1.0  0.20047  0.18189  0.56588  1.0000
  N   N26       1.0  0.79386  0.83214  0.53924  1.0000
  N   N27       1.0  0.20551  0.83167  0.57008  1.0000
  N   N28       1.0  0.79319  0.17568  0.57920  1.0000
  N   N29       1.0  0.70797  0.67540  0.55317  1.0000
  N   N30       1.0  0.29220  0.33591  0.56317  1.0000
  N   N31       1.0  0.70615  0.33141  0.56362  1.0000
  N   N32       1.0  0.29371  0.67532  0.55761  1.0000
  O   O1        1.0  0.16832  0.20672  0.97413  1.0000
  O   O2        1.0  0.83166  0.78893  0.92269  1.0000
  O   O3        1.0  0.16504  0.78468  0.88601  1.0000
  O   O4        1.0  0.83496  0.21098  0.98107  1.0000
  O   O5        1.0  0.66647  0.70839  0.98171  1.0000
  O   O6        1.0  0.33181  0.28700  0.89771  1.0000
  O   O7        1.0  0.66894  0.29102  0.93046  1.0000
  O   O8        1.0  0.32990  0.70703  0.97308  1.0000
  O   O9        1.0  0.16192  0.20900  0.44268  1.0000
  O   O10       1.0  0.83279  0.78676  0.42518  1.0000
  O   O11       1.0  0.17059  0.78543  0.39377  1.0000
  O   O12       1.0  0.83331  0.20620  0.48683  1.0000
  O   O13       1.0  0.66707  0.70545  0.46139  1.0000
  O   O14       1.0  0.32878  0.28919  0.42071  1.0000
  O   O15       1.0  0.66556  0.28708  0.44954  1.0000
  O   O16       1.0  0.33503  0.70657  0.47658  1.0000
  C   C97       1.0  0.35551  0.43085  0.62434  1.0000
  C   C98       1.0  0.35697  0.39631  0.50560  1.0000
  C  Sn1       1.0  0.38426  0.38433  0.38011  1.0000
  C  Sn2       1.0  0.41055  0.40742  0.37373  1.0000
  C   C99       1.0  0.40887  0.44192  0.49319  1.0000
  C   C100      1.0  0.38143  0.45363  0.61819  1.0000
  H   H49       1.0  0.33429  0.43991  0.72113  1.0000
  O  Te1       1.0  0.38532  0.34974  0.26242  1.0000
  O  Te2       1.0  0.43813  0.39613  0.24970  1.0000
  H   H50       1.0  0.38032  0.48038  0.71019  1.0000
  Mg  Mg1       1.0  0.42814  0.34663  0.11742  1.0000
  C   C101      1.0  0.58485  0.58786  0.40366  1.0000
  C   C102      1.0  0.59460  0.56012  0.44513  1.0000
  C  Sn3       1.0  0.62778  0.55924  0.51782  1.0000
  C  Sn4       1.0  0.65157  0.58668  0.54946  1.0000
  C   C103      1.0  0.64155  0.61433  0.50763  1.0000
  C   C104      1.0  0.60829  0.61494  0.43490  1.0000
  H   H51       1.0  0.55911  0.58835  0.34748  1.0000
  O  Te3       1.0  0.63710  0.53132  0.55841  1.0000
  O  Te4       1.0  0.68488  0.58646  0.62205  1.0000
  H   H52       1.0  0.60074  0.63644  0.40291  1.0000
  Mg  Mg2       1.0  0.68545  0.54275  0.65509  1.0000
  C   C105      1.0  0.40656  0.60399  0.41822  1.0000
  C   C106      1.0  0.37111  0.61067  0.46131  1.0000
  C  Sn5       1.0  0.35169  0.58940  0.52166  1.0000
  C  Sn6       1.0  0.36812  0.56094  0.53910  1.0000
  C   C107      1.0  0.40360  0.55449  0.49577  1.0000
  C   C108      1.0  0.42280  0.57593  0.43545  1.0000
  H   H53       1.0  0.42141  0.62058  0.37165  1.0000
  O  Te5       1.0  0.31629  0.59644  0.56407  1.0000
  O  Te6       1.0  0.34933  0.53928  0.59917  1.0000
  H   H54       1.0  0.45024  0.57076  0.40221  1.0000
  Mg  Mg3       1.0  0.30174  0.55947  0.64034  1.0000
  C   C109      1.0  0.60189  0.38380  0.35397  1.0000
  C   C110      1.0  0.63301  0.38371  0.44659  1.0000
  C  Sn7       1.0  0.64647  0.41429  0.57622  1.0000
  C  Sn8       1.0  0.62839  0.44549  0.61357  1.0000
  C   C111      1.0  0.59726  0.44531  0.52026  1.0000
  C   C112      1.0  0.58403  0.41457  0.39077  1.0000
  H   H55       1.0  0.59164  0.36002  0.25384  1.0000
  O  Te7       1.0  0.67760  0.41374  0.66746  1.0000
  O  Te8       1.0  0.64125  0.47642  0.74251  1.0000
  H   H56       1.0  0.55993  0.41464  0.31917  1.0000
  Mg  Mg4       1.0  0.68466  0.46250  0.83121  1.0000
  C   C113      1.0  0.91302  0.89620  0.34389  1.0000
  C   C114      1.0  0.90806  0.93134  0.44202  1.0000
  C  Sn9       1.0  0.87913  0.94321  0.55667  1.0000
  C  Sn10      1.0  0.85478  0.91941  0.57314  1.0000
  C   C115      1.0  0.85999  0.88431  0.47448  1.0000
  C   C116      1.0  0.88902  0.87270  0.36010  1.0000
  H   H57       1.0  0.93548  0.88721  0.25547  1.0000
  O  Te9       1.0  0.87457  0.97841  0.65369  1.0000
  O  Te10      1.0  0.82565  0.93058  0.68680  1.0000
  H   H58       1.0  0.89286  0.84549  0.28423  1.0000
  Mg  Mg5       1.0  0.83078  0.98108  0.79101  1.0000
  C   C117      1.0  0.08154  0.08835  0.39038  1.0000
  C   C118      1.0  0.09267  0.06093  0.43133  1.0000
  C  Sn11      1.0  0.12648  0.06073  0.49881  1.0000
  C  Sn12      1.0  0.14950  0.08854  0.52569  1.0000
  C   C119      1.0  0.13810  0.11587  0.48442  1.0000
  C   C120      1.0  0.10422  0.11580  0.41692  1.0000
  H   H59       1.0  0.05532  0.08831  0.33824  1.0000
  O  Te11      1.0  0.13725  0.03312  0.53896  1.0000
  O  Te12      1.0  0.18342  0.08900  0.59302  1.0000
  H   H60       1.0  0.09560  0.13705  0.38533  1.0000
  Mg  Mg6       1.0  0.18596  0.04549  0.62758  1.0000
  C   C121      1.0  0.84809  0.07654  0.55089  1.0000
  C   C122      1.0  0.85688  0.10457  0.51000  1.0000
  C  Sn13      1.0  0.88986  0.10641  0.43894  1.0000
  C  Sn14      1.0  0.91442  0.07966  0.40834  1.0000
  C   C123      1.0  0.90537  0.05172  0.44957  1.0000
  C   C124      1.0  0.87230  0.05014  0.52069  1.0000
  H   H61       1.0  0.82251  0.07531  0.60582  1.0000
  O  Te13      1.0  0.89822  0.13460  0.39891  1.0000
  O  Te14      1.0  0.94756  0.08085  0.33738  1.0000
  H   H62       1.0  0.86557  0.02843  0.55222  1.0000
  Mg  Mg7       1.0  0.94668  0.12457  0.30454  1.0000
  C   C125      1.0  0.14763  0.93009  0.62023  1.0000
  C   C126      1.0  0.14215  0.89498  0.52302  1.0000
  C  Sn15      1.0  0.11476  0.88336  0.39659  1.0000
  C  Sn16      1.0  0.09249  0.90740  0.36721  1.0000
  C   C127      1.0  0.09821  0.94248  0.46506  1.0000
  C   C128      1.0  0.12569  0.95382  0.59129  1.0000
  H   H63       1.0  0.16891  0.93887  0.71783  1.0000
  O  Te15      1.0  0.10964  0.84819  0.30068  1.0000
  O  Te16      1.0  0.06493  0.89650  0.24162  1.0000
  H   H64       1.0  0.12995  0.98101  0.66645  1.0000
  Mg  Mg8       1.0  0.06853  0.84592  0.14417  1.0000
  C   C129      1.0  0.36495  0.44663  0.12594  1.0000
  C   C130      1.0  0.39564  0.44679  0.03143  1.0000
  C  Sn17      1.0  0.40968  0.49118  0.90158  1.0000
  C  Sn18      1.0  0.39178  0.45991  0.86595  1.0000
  C   C131      1.0  0.36108  0.46003  0.96114  1.0000
  C   C132      1.0  0.34727  0.41581  0.09083  1.0000
  H   H65       1.0  0.35488  0.47041  0.22622  1.0000
  O  Te17      1.0  0.44038  0.49180  0.80843  1.0000
  O  Te18      1.0  0.40440  0.42899  0.73683  1.0000
  H   H66       1.0  0.32349  0.41568  0.16390  1.0000
  Mg  Mg9       1.0  0.44724  0.44302  0.64521  1.0000
  C   C133      1.0  0.58405  0.59009  0.90061  1.0000
  C   C134      1.0  0.59345  0.56248  0.94399  1.0000
  C  Sn19      1.0  0.62580  0.48641  0.01607  1.0000
  C  Sn20      1.0  0.64995  0.51347  0.04515  1.0000
  C   C135      1.0  0.64029  0.54099  0.00142  1.0000
  C   C136      1.0  0.60785  0.61679  0.92931  1.0000
  H   H67       1.0  0.55831  0.59076  0.84491  1.0000
  O  Te19      1.0  0.63476  0.45863  0.05860  1.0000
  O  Te20      1.0  0.68327  0.51300  0.11708  1.0000
  H   H68       1.0  0.60057  0.63818  0.89584  1.0000
  Mg  Mg10      1.0  0.68327  0.46961  0.15343  1.0000
  C   C137      1.0  0.35901  0.56675  0.05100  1.0000
  C   C138      1.0  0.39350  0.63297  0.97910  1.0000
  C  Sn21      1.0  0.41144  0.65411  0.91211  1.0000
  C  Sn22      1.0  0.39532  0.68454  0.91741  1.0000
  C   C139      1.0  0.36164  0.69306  0.98973  1.0000
  C   C140      1.0  0.34309  0.59677  0.05635  1.0000
  H   H69       1.0  0.34530  0.55024  0.10264  1.0000
  O  Te21      1.0  0.44505  0.64499  0.84068  1.0000
  O  Te22      1.0  0.41267  0.70614  0.85143  1.0000
  H   H70       1.0  0.31704  0.60355  0.11211  1.0000
  Mg  Mg11      1.0  0.45808  0.68272  0.76722  1.0000
  C   C141      1.0  0.58896  0.40199  0.86981  1.0000
  C   C142      1.0  0.59211  0.43692  0.97948  1.0000
  C  Sn23      1.0  0.62005  0.37417  0.09628  1.0000
  C  Sn24      1.0  0.64612  0.35091  0.10306  1.0000
  C   C143      1.0  0.64356  0.39097  0.99270  1.0000
  C   C144      1.0  0.61466  0.37903  0.87636  1.0000
  H   H71       1.0  0.56661  0.39275  0.77972  1.0000
  O  Te23      1.0  0.62278  0.40915  0.20497  1.0000
  O  Te24      1.0  0.67515  0.36242  0.21850  1.0000
  H   H72       1.0  0.61224  0.35198  0.79138  1.0000
  Mg  Mg12      1.0  0.66718  0.41244  0.34030  1.0000
  C   C145      1.0  0.86459  0.94688  0.12181  1.0000
  C   C146      1.0  0.89540  0.94686  0.02780  1.0000
  C  Sn25      1.0  0.90921  0.99120  0.89731  1.0000
  C  Sn26      1.0  0.89096  0.96007  0.86051  1.0000
  C   C147      1.0  0.86014  0.96036  0.95520  1.0000
  C   C148      1.0  0.84656  0.91619  0.08555  1.0000
  H   H73       1.0  0.85470  0.97069  0.22260  1.0000
  O  Te25      1.0  0.94004  0.99164  0.80468  1.0000
  O  Te26      1.0  0.90335  0.92911  0.73073  1.0000
  H   H74       1.0  0.82269  0.91619  0.15823  1.0000
  Mg  Mg13      1.0  0.94648  0.94287  0.64020  1.0000
  C   C149      1.0  0.08554  0.08966  0.89875  1.0000
  C   C150      1.0  0.09431  0.06092  0.93356  1.0000
  C  Sn27      1.0  0.12674  0.98322  0.00026  1.0000
  C  Sn28      1.0  0.15162  0.00976  0.03263  1.0000
  C   C151      1.0  0.14348  0.11337  0.99749  1.0000
  C   C152      1.0  0.11013  0.11586  0.93071  1.0000
  H   H75       1.0  0.05974  0.09160  0.84717  1.0000
  O  Te27      1.0  0.13501  0.95433  0.03423  1.0000
  O  Te28      1.0  0.18505  0.00767  0.09932  1.0000
  H   H76       1.0  0.10340  0.13812  0.90388  1.0000
  Mg  Mg14      1.0  0.18397  0.96323  0.12445  1.0000
  C   C153      1.0  0.85981  0.06825  0.04644  1.0000
  C   C154      1.0  0.89419  0.13364  0.97466  1.0000
  C  Sn29      1.0  0.91305  0.15443  0.90883  1.0000
  C  Sn30      1.0  0.89797  0.18537  0.91522  1.0000
  C   C155      1.0  0.86439  0.19473  0.98742  1.0000
  C   C156      1.0  0.84492  0.09877  0.05286  1.0000
  H   H77       1.0  0.84539  0.05201  0.09717  1.0000
  O  Te29      1.0  0.94654  0.14448  0.83750  1.0000
  O  Te30      1.0  0.91624  0.20664  0.85043  1.0000
  H   H78       1.0  0.81895  0.10620  0.10854  1.0000
  Mg  Mg15      1.0  0.96107  0.18205  0.76586  1.0000
  C   C157      1.0  0.08619  0.89958  0.84765  1.0000
  C   C158      1.0  0.09033  0.93421  0.96118  1.0000
  C  Sn31      1.0  0.11841  0.87014  0.07810  1.0000
  C  Sn32      1.0  0.14362  0.84584  0.08107  1.0000
  C   C159      1.0  0.14008  0.88620  0.96687  1.0000
  C   C160      1.0  0.11105  0.87559  0.85045  1.0000
  H   H79       1.0  0.06374  0.89137  0.75749  1.0000
  O  Te31      1.0  0.12213  0.90483  0.19067  1.0000
  O  Te32      1.0  0.17277  0.85601  0.19656  1.0000
  H   H80       1.0  0.10787  0.84878  0.76248  1.0000
  Mg  Mg16      1.0  0.16629  0.90615  0.32442  1.0000
  C   C161      1.0  0.77117  0.72667  0.04623  1.0000
  C   C162      1.0  0.73457  0.72729  0.03889  1.0000
  C  Sn33      1.0  0.71744  0.75332  0.00618  1.0000
  C  Sn34      1.0  0.73821  0.85412  0.98034  1.0000
  C   C163      1.0  0.77481  0.85325  0.98780  1.0000
  C   C164      1.0  0.79086  0.75215  0.02068  1.0000
  H   H81       1.0  0.78423  0.70642  0.07156  1.0000
  O  Te33      1.0  0.68168  0.82851  0.99936  1.0000
  O  Te34      1.0  0.72175  0.88042  0.94736  1.0000
  H   H82       1.0  0.81919  0.75166  0.02623  1.0000
  Mg  Mg17      1.0  0.67130  0.86969  0.95058  1.0000
  C   C165      1.0  0.28609  0.23899  0.04774  1.0000
  C   C166      1.0  0.28066  0.26724  0.00338  1.0000
  C  Sn35      1.0  0.24752  0.35149  0.97558  1.0000
  C  Sn36      1.0  0.21852  0.33212  0.99265  1.0000
  C   C167      1.0  0.22340  0.22896  0.03720  1.0000
  C   C168      1.0  0.25750  0.21987  0.06467  1.0000
  H   H83       1.0  0.31247  0.23197  0.06909  1.0000
  O  Te35      1.0  0.24256  0.37978  0.93128  1.0000
  O  Te36      1.0  0.18430  0.34086  0.96566  1.0000
  H   H84       1.0  0.26170  0.19801  0.09913  1.0000
  Mg  Mg18      1.0  0.19096  0.38155  0.90754  1.0000
  C   C169      1.0  0.77127  0.28169  0.98680  1.0000
  C   C170      1.0  0.73474  0.28108  0.99814  1.0000
  C  Sn37      1.0  0.71729  0.18067  0.03781  1.0000
  C  Sn38      1.0  0.73770  0.15538  0.06665  1.0000
  C   C171      1.0  0.77423  0.15622  0.05513  1.0000
  C   C172      1.0  0.79059  0.18181  0.01529  1.0000
  H   H85       1.0  0.78393  0.30150  0.95607  1.0000
  O  Te37      1.0  0.68077  0.18043  0.04856  1.0000
  O  Te38      1.0  0.72177  0.12964  0.10657  1.0000
  H   H86       1.0  0.81887  0.18229  0.00664  1.0000
  Mg  Mg19      1.0  0.67119  0.14014  0.10658  1.0000
  C   C173      1.0  0.27943  0.76659  0.00712  1.0000
  C   C174      1.0  0.27390  0.73593  0.02837  1.0000
  C  Sn39      1.0  0.23991  0.72334  0.02377  1.0000
  C  Sn40      1.0  0.21181  0.81680  0.99733  1.0000
  C   C175      1.0  0.21763  0.84744  0.97608  1.0000
  C   C176      1.0  0.25174  0.85981  0.98097  1.0000
  H   H87       1.0  0.30583  0.77615  0.01080  1.0000
  O  Te39      1.0  0.23485  0.69267  0.04529  1.0000
  O  Te40      1.0  0.17757  0.80479  0.99209  1.0000
  H   H88       1.0  0.25602  0.88354  0.96439  1.0000
  Mg  Mg20      1.0  0.18326  0.68679  0.02808  1.0000
  C   C177      1.0  0.77107  0.72546  0.54249  1.0000
  C   C178      1.0  0.73448  0.72595  0.53371  1.0000
  C  Sn41      1.0  0.71737  0.75200  0.50107  1.0000
  C  Sn42      1.0  0.73733  0.77800  0.47677  1.0000
  C   C179      1.0  0.77392  0.77726  0.48568  1.0000
  C   C180      1.0  0.79077  0.75108  0.51847  1.0000
  H   H89       1.0  0.78411  0.70520  0.56777  1.0000
  O  Te41      1.0  0.68080  0.75211  0.49279  1.0000
  O  Te42      1.0  0.72090  0.80432  0.44390  1.0000
  H   H90       1.0  0.81910  0.75070  0.52515  1.0000
  Mg  Mg21      1.0  0.67046  0.79338  0.44479  1.0000
  C   C181      1.0  0.27900  0.24212  0.54985  1.0000
  C   C182      1.0  0.27501  0.27065  0.50644  1.0000
  C  Sn43      1.0  0.24168  0.28059  0.47331  1.0000
  C  Sn44      1.0  0.21184  0.26157  0.48399  1.0000
  C   C183      1.0  0.21611  0.23309  0.52765  1.0000
  C   C184      1.0  0.24958  0.22336  0.56048  1.0000
  H   H91       1.0  0.30490  0.23460  0.57535  1.0000
  O  Te43      1.0  0.23817  0.30915  0.43004  1.0000
  O  Te44      1.0  0.17823  0.27095  0.45160  1.0000
  H   H92       1.0  0.25266  0.20128  0.59421  1.0000
  Mg  Mg22      1.0  0.18691  0.31180  0.39738  1.0000
  C   C185      1.0  0.71501  0.23719  0.56538  1.0000
  C   C186      1.0  0.72003  0.26810  0.54601  1.0000
  C  Sn45      1.0  0.75344  0.27750  0.51134  1.0000
  C  Sn46      1.0  0.78231  0.25549  0.49579  1.0000
  C   C187      1.0  0.77701  0.22461  0.51526  1.0000
  C   C188      1.0  0.74347  0.21546  0.54999  1.0000
  H   H93       1.0  0.68906  0.23010  0.59215  1.0000
  O  Te45      1.0  0.75800  0.30848  0.49243  1.0000
  O  Te46      1.0  0.81598  0.26426  0.46111  1.0000
  H   H94       1.0  0.73959  0.19152  0.56486  1.0000
  Mg  Mg23      1.0  0.80891  0.30916  0.44610  1.0000
  C   C189      1.0  0.28442  0.76690  0.51620  1.0000
  C   C190      1.0  0.27902  0.73524  0.52656  1.0000
  C  Sn47      1.0  0.24507  0.72238  0.51881  1.0000
  C  Sn48      1.0  0.21605  0.74162  0.50030  1.0000
  C   C191      1.0  0.22173  0.77326  0.48993  1.0000
  C   C192      1.0  0.25581  0.78589  0.49788  1.0000
  H   H95       1.0  0.31079  0.77667  0.52225  1.0000
  O  Te47      1.0  0.24014  0.69071  0.52942  1.0000
  O  Te48      1.0  0.18185  0.72937  0.49215  1.0000
  H   H96       1.0  0.25999  0.81040  0.48974  1.0000
  Mg  Mg24      1.0  0.18855  0.68485  0.51224  1.0000
