data_image0
_chemical_formula_structural       H48C96N32O16SnCSn2CSnTe4Mg2SnCSn2CSnTe4Mg2SnCSn2CSnTe4Mg2SnCSn2CSnTe4Mg2SnCSn2CSnTe4Mg2SnCSn2CSnTe4Mg2SnCSn2CSnTe4Mg2SnCSn2CSnTe4Mg2SnCSn2CSnTe4Mg2SnCSn2CSnTe4Mg2SnCSn2CSnTe4Mg2SnCSn2CSnTe4Mg2SnCSn2CSnTe4Mg2SnCSn2CSnTe4Mg2SnCSn2CSnTe4Mg2SnCSn2CSnTe4Mg2SnCSn2CSnTe4Mg2SnCSn2CSnTe4Mg2SnCSn2CSnTe4Mg2SnCSn2CSnTe4Mg2SnCSn2CSnTe4Mg2SnCSn2CSnTe4Mg2SnCSn2CSnTe4Mg2SnCSn2CSnTe4Mg2
_chemical_formula_sum              "H48 C144 N32 O16 Sn96 Te96 Mg48"
_cell_length_a       38.1401
_cell_length_b       42.5475
_cell_length_c       8.00083
_cell_angle_alpha    113.489
_cell_angle_beta     90.2242
_cell_angle_gamma    90.0036

_symmetry_space_group_name_H-M    'P1'
_space_group_IT_number       1

loop_
  _space_group_symop_operation_xyz
  'x, y, z'

loop_
  _atom_site_type_symbol
  _atom_site_label
  _atom_site_symmetry_multiplicity
  _atom_site_fract_x
  _atom_site_fract_y
  _atom_site_fract_z
  _atom_site_occupancy
  H   H1        1.0  0.53100  0.43007  0.08074  1.0000
  H   H2        1.0  0.46858  0.58770  0.08038  1.0000
  H   H3        1.0  0.53188  0.58719  0.08306  1.0000
  H   H4        1.0  0.46662  0.42989  0.07586  1.0000
  H   H5        1.0  0.03012  0.92786  0.06172  1.0000
  H   H6        1.0  0.96872  0.08712  0.07804  1.0000
  H   H7        1.0  0.03202  0.08610  0.07176  1.0000
  H   H8        1.0  0.96596  0.92842  0.06250  1.0000
  H   H9        1.0  0.35051  0.33300  0.39588  1.0000
  H   H10       1.0  0.64365  0.65986  0.44797  1.0000
  H   H11       1.0  0.35632  0.65824  0.43395  1.0000
  H   H12       1.0  0.65142  0.33092  0.37196  1.0000
  H   H13       1.0  0.84959  0.82969  0.35075  1.0000
  H   H14       1.0  0.13941  0.16125  0.42028  1.0000
  H   H15       1.0  0.85532  0.15743  0.44878  1.0000
  H   H16       1.0  0.14989  0.83167  0.38923  1.0000
  H   H17       1.0  0.23253  0.17904  0.13034  1.0000
  H   H18       1.0  0.77151  0.84152  0.13407  1.0000
  H   H19       1.0  0.22182  0.83761  0.13557  1.0000
  H   H20       1.0  0.77128  0.18395  0.14305  1.0000
  H   H21       1.0  0.73274  0.67772  0.10769  1.0000
  H   H22       1.0  0.27561  0.33927  0.15275  1.0000
  H   H23       1.0  0.72956  0.34374  0.13942  1.0000
  H   H24       1.0  0.26601  0.67907  0.12883  1.0000
  H   H25       1.0  0.53370  0.42489  0.56272  1.0000
  H   H26       1.0  0.46990  0.58549  0.60416  1.0000
  H   H27       1.0  0.53346  0.58471  0.58554  1.0000
  H   H28       1.0  0.46914  0.42473  0.56048  1.0000
  H   H29       1.0  0.03538  0.92492  0.55276  1.0000
  H   H30       1.0  0.96819  0.08405  0.59186  1.0000
  H   H31       1.0  0.03198  0.08511  0.59236  1.0000
  H   H32       1.0  0.97085  0.92457  0.56013  1.0000
  H   H33       1.0  0.35163  0.33335  0.88200  1.0000
  H   H34       1.0  0.64568  0.66015  0.93143  1.0000
  H   H35       1.0  0.35092  0.65954  0.93188  1.0000
  H   H36       1.0  0.64866  0.33575  0.89962  1.0000
  H   H37       1.0  0.85176  0.83352  0.88906  1.0000
  H   H38       1.0  0.14685  0.15885  0.93582  1.0000
  H   H39       1.0  0.85506  0.16209  0.93429  1.0000
  H   H40       1.0  0.14528  0.83065  0.86374  1.0000
  H   H41       1.0  0.22280  0.18575  0.64119  1.0000
  H   H42       1.0  0.77236  0.83986  0.61983  1.0000
  H   H43       1.0  0.22643  0.83797  0.65613  1.0000
  H   H44       1.0  0.76933  0.17751  0.63766  1.0000
  H   H45       1.0  0.73281  0.67619  0.60177  1.0000
  H   H46       1.0  0.27042  0.34337  0.64199  1.0000
  H   H47       1.0  0.72806  0.33835  0.64228  1.0000
  H   H48       1.0  0.26966  0.67697  0.61434  1.0000
  C   C1        1.0  0.51696  0.44933  0.04996  1.0000
  C   C2        1.0  0.48196  0.56345  0.04522  1.0000
  C   C3        1.0  0.51785  0.56317  0.04548  1.0000
  C   C4        1.0  0.48098  0.44928  0.04765  1.0000
  C   C5        1.0  0.01622  0.94767  0.03511  1.0000
  C   C6        1.0  0.98203  0.06276  0.04054  1.0000
  C   C7        1.0  0.01795  0.06219  0.03737  1.0000
  C   C8        1.0  0.98025  0.94808  0.03631  1.0000
  C   C9        1.0  0.53648  0.47515  0.02102  1.0000
  C   C10       1.0  0.46199  0.53309  0.00829  1.0000
  C   C11       1.0  0.53721  0.53244  0.00615  1.0000
  C   C12       1.0  0.46180  0.47517  0.01697  1.0000
  C   C13       1.0  0.03588  0.97351  0.00689  1.0000
  C   C14       1.0  0.96189  0.03253  0.00330  1.0000
  C   C15       1.0  0.03716  0.03142  0.99894  1.0000
  C   C16       1.0  0.96128  0.97458  0.01042  1.0000
  C   C17       1.0  0.42662  0.47138  0.50580  1.0000
  C   C18       1.0  0.57650  0.52838  0.48988  1.0000
  C   C19       1.0  0.42624  0.52945  0.50110  1.0000
  C   C20       1.0  0.57625  0.47138  0.50840  1.0000
  C   C21       1.0  0.92739  0.96936  0.49551  1.0000
  C   C22       1.0  0.07591  0.02929  0.48374  1.0000
  C   C23       1.0  0.92571  0.02725  0.48877  1.0000
  C   C24       1.0  0.07707  0.97149  0.49346  1.0000
  C   C25       1.0  0.34061  0.35855  0.47748  1.0000
  C   C26       1.0  0.65775  0.64215  0.49193  1.0000
  C   C27       1.0  0.34340  0.64152  0.48838  1.0000
  C   C28       1.0  0.65984  0.35584  0.47118  1.0000
  C   C29       1.0  0.84086  0.85499  0.44341  1.0000
  C   C30       1.0  0.15278  0.14513  0.47745  1.0000
  C   C31       1.0  0.84216  0.14080  0.50345  1.0000
  C   C32       1.0  0.15988  0.85684  0.47783  1.0000
  C   C33       1.0  0.69722  0.70405  0.01861  1.0000
  C   C34       1.0  0.30456  0.29836  0.98369  1.0000
  C   C35       1.0  0.69791  0.30243  0.99707  1.0000
  C   C36       1.0  0.29971  0.70332  0.01831  1.0000
  C   C37       1.0  0.19847  0.20339  0.02182  1.0000
  C   C38       1.0  0.80295  0.80004  0.99202  1.0000
  C   C39       1.0  0.19263  0.79623  0.96934  1.0000
  C   C40       1.0  0.80491  0.20785  0.02963  1.0000
  C   C41       1.0  0.48051  0.50383  0.00988  1.0000
  C   C42       1.0  0.51817  0.50364  0.01017  1.0000
  C   C43       1.0  0.98022  0.00314  0.00390  1.0000
  C   C44       1.0  0.01789  0.00261  0.00180  1.0000
  C   C45       1.0  0.41125  0.50019  0.50365  1.0000
  C   C46       1.0  0.59158  0.49976  0.50056  1.0000
  C   C47       1.0  0.91123  0.99813  0.49573  1.0000
  C   C48       1.0  0.09170  0.00052  0.48939  1.0000
  C   C49       1.0  0.51936  0.44512  0.54206  1.0000
  C   C50       1.0  0.48365  0.56129  0.56296  1.0000
  C   C51       1.0  0.51945  0.56082  0.55386  1.0000
  C   C52       1.0  0.48346  0.44494  0.53967  1.0000
  C   C53       1.0  0.02062  0.94459  0.52906  1.0000
  C   C54       1.0  0.98254  0.06019  0.55217  1.0000
  C   C55       1.0  0.01836  0.06084  0.55387  1.0000
  C   C56       1.0  0.98475  0.94437  0.53329  1.0000
  C   C57       1.0  0.53870  0.47196  0.52091  1.0000
  C   C58       1.0  0.46377  0.53078  0.52405  1.0000
  C   C59       1.0  0.53896  0.52991  0.51136  1.0000
  C   C60       1.0  0.46415  0.47168  0.51691  1.0000
  C   C61       1.0  0.03941  0.97116  0.50163  1.0000
  C   C62       1.0  0.96338  0.02897  0.50613  1.0000
  C   C63       1.0  0.03853  0.03038  0.51028  1.0000
  C   C64       1.0  0.96485  0.97062  0.50956  1.0000
  C   C65       1.0  0.42410  0.47448  0.00441  1.0000
  C   C66       1.0  0.57485  0.53085  0.98683  1.0000
  C   C67       1.0  0.42438  0.53181  0.98922  1.0000
  C   C68       1.0  0.57411  0.47445  0.00968  1.0000
  C   C69       1.0  0.92360  0.97435  0.99854  1.0000
  C   C70       1.0  0.07484  0.02944  0.97744  1.0000
  C   C71       1.0  0.92426  0.03157  0.98297  1.0000
  C   C72       1.0  0.07349  0.97228  0.99329  1.0000
  C   C73       1.0  0.34187  0.35830  0.97479  1.0000
  C   C74       1.0  0.65829  0.64311  0.98500  1.0000
  C   C75       1.0  0.33908  0.64330  0.99242  1.0000
  C   C76       1.0  0.65921  0.36095  0.98352  1.0000
  C   C77       1.0  0.84090  0.85874  0.97137  1.0000
  C   C78       1.0  0.16000  0.14181  0.98789  1.0000
  C   C79       1.0  0.84298  0.14624  0.99653  1.0000
  C   C80       1.0  0.15507  0.85569  0.95497  1.0000
  C   C81       1.0  0.69729  0.70212  0.50816  1.0000
  C   C82       1.0  0.30043  0.30126  0.49281  1.0000
  C   C83       1.0  0.69522  0.29752  0.51024  1.0000
  C   C84       1.0  0.30453  0.70246  0.51595  1.0000
  C   C85       1.0  0.19117  0.20706  0.50588  1.0000
  C   C86       1.0  0.80360  0.79804  0.48618  1.0000
  C   C87       1.0  0.19762  0.79704  0.48355  1.0000
  C   C88       1.0  0.80329  0.20244  0.53311  1.0000
  C   C89       1.0  0.48260  0.50116  0.51885  1.0000
  C   C90       1.0  0.52024  0.50099  0.51675  1.0000
  C   C91       1.0  0.98275  0.99991  0.50539  1.0000
  C   C92       1.0  0.02034  0.00041  0.50446  1.0000
  C   C93       1.0  0.40911  0.50262  0.99206  1.0000
  C   C94       1.0  0.58985  0.50213  0.99573  1.0000
  C   C95       1.0  0.90863  0.00249  0.98543  1.0000
  C   C96       1.0  0.08928  0.00009  0.98155  1.0000
  N   N1        1.0  0.68997  0.64859  0.05293  1.0000
  N   N2        1.0  0.31427  0.36156  0.07567  1.0000
  N   N3        1.0  0.68844  0.36506  0.07444  1.0000
  N   N4        1.0  0.30820  0.64941  0.06728  1.0000
  N   N5        1.0  0.19123  0.14816  0.06059  1.0000
  N   N6        1.0  0.81174  0.86268  0.06191  1.0000
  N   N7        1.0  0.18289  0.85929  0.05603  1.0000
  N   N8        1.0  0.81266  0.15351  0.07684  1.0000
  N   N9        1.0  0.20894  0.17671  0.06730  1.0000
  N   N10       1.0  0.79336  0.83437  0.05544  1.0000
  N   N11       1.0  0.20111  0.83092  0.04810  1.0000
  N   N12       1.0  0.79457  0.18151  0.07871  1.0000
  N   N13       1.0  0.70828  0.67642  0.05431  1.0000
  N   N14       1.0  0.29629  0.33289  0.06590  1.0000
  N   N15       1.0  0.70732  0.33680  0.06327  1.0000
  N   N16       1.0  0.28950  0.67681  0.06560  1.0000
  N   N17       1.0  0.69022  0.64712  0.54918  1.0000
  N   N18       1.0  0.31164  0.36360  0.57023  1.0000
  N   N19       1.0  0.68716  0.35973  0.57573  1.0000
  N   N20       1.0  0.31196  0.64751  0.55691  1.0000
  N   N21       1.0  0.18322  0.15312  0.55771  1.0000
  N   N22       1.0  0.81327  0.85979  0.54598  1.0000
  N   N23       1.0  0.18789  0.86038  0.57753  1.0000
  N   N24       1.0  0.81101  0.14740  0.57542  1.0000
  N   N25       1.0  0.20047  0.18189  0.56588  1.0000
  N   N26       1.0  0.79386  0.83214  0.53924  1.0000
  N   N27       1.0  0.20551  0.83167  0.57008  1.0000
  N   N28       1.0  0.79319  0.17568  0.57920  1.0000
  N   N29       1.0  0.70797  0.67540  0.55317  1.0000
  N   N30       1.0  0.29220  0.33591  0.56317  1.0000
  N   N31       1.0  0.70615  0.33141  0.56362  1.0000
  N   N32       1.0  0.29371  0.67532  0.55761  1.0000
  O   O1        1.0  0.16832  0.20672  0.97413  1.0000
  O   O2        1.0  0.83166  0.78893  0.92269  1.0000
  O   O3        1.0  0.16504  0.78468  0.88601  1.0000
  O   O4        1.0  0.83496  0.21098  0.98107  1.0000
  O   O5        1.0  0.66647  0.70839  0.98171  1.0000
  O   O6        1.0  0.33181  0.28700  0.89771  1.0000
  O   O7        1.0  0.66894  0.29102  0.93046  1.0000
  O   O8        1.0  0.32990  0.70703  0.97308  1.0000
  O   O9        1.0  0.16192  0.20900  0.44268  1.0000
  O   O10       1.0  0.83279  0.78676  0.42518  1.0000
  O   O11       1.0  0.17059  0.78543  0.39377  1.0000
  O   O12       1.0  0.83331  0.20620  0.48683  1.0000
  O   O13       1.0  0.66707  0.70545  0.46139  1.0000
  O   O14       1.0  0.32878  0.28919  0.42071  1.0000
  O   O15       1.0  0.66556  0.28708  0.44954  1.0000
  O   O16       1.0  0.33503  0.70657  0.47658  1.0000
  C  Sn1       1.0  0.40299  0.38466  0.40177  1.0000
  C   C97       1.0  0.37273  0.38616  0.50257  1.0000
  C  Sn2       1.0  0.35545  0.41730  0.59263  1.0000
  C  Sn3       1.0  0.36869  0.44757  0.58163  1.0000
  C   C98       1.0  0.39893  0.44606  0.48085  1.0000
  C  Sn4       1.0  0.41623  0.41493  0.39077  1.0000
  O  Te1       1.0  0.41983  0.35326  0.31283  1.0000
  O  Te2       1.0  0.32525  0.41816  0.69262  1.0000
  O  Te3       1.0  0.35181  0.47899  0.67068  1.0000
  O  Te4       1.0  0.44641  0.41406  0.29080  1.0000
  Mg  Mg1       1.0  0.31157  0.46707  0.78981  1.0000
  Mg  Mg2       1.0  0.46009  0.36517  0.19349  1.0000
  C  Sn5       1.0  0.59055  0.58052  0.35394  1.0000
  C   C99       1.0  0.59968  0.55493  0.41393  1.0000
  C  Sn6       1.0  0.62851  0.55926  0.52929  1.0000
  C  Sn7       1.0  0.64862  0.58982  0.58598  1.0000
  C   C100      1.0  0.63948  0.61539  0.52603  1.0000
  C  Sn8       1.0  0.61066  0.61108  0.41063  1.0000
  O  Te5       1.0  0.56162  0.57565  0.23866  1.0000
  O  Te6       1.0  0.63713  0.53330  0.58741  1.0000
  O  Te7       1.0  0.67756  0.59467  0.70135  1.0000
  O  Te8       1.0  0.60203  0.63702  0.35254  1.0000
  Mg  Mg3       1.0  0.67886  0.55193  0.74380  1.0000
  Mg  Mg4       1.0  0.56030  0.61843  0.19624  1.0000
  C  Sn9       1.0  0.35371  0.58538  0.58852  1.0000
  C   C101      1.0  0.36276  0.61108  0.52934  1.0000
  C  Sn10      1.0  0.39270  0.60781  0.42370  1.0000
  C  Sn11      1.0  0.41402  0.57822  0.37611  1.0000
  C   C102      1.0  0.40497  0.55254  0.43524  1.0000
  C  Sn12      1.0  0.37503  0.55579  0.54092  1.0000
  O  Te9       1.0  0.32366  0.58918  0.69399  1.0000
  O  Te10      1.0  0.40122  0.63384  0.36619  1.0000
  O  Te11      1.0  0.44409  0.57443  0.27055  1.0000
  O  Te12      1.0  0.36651  0.52977  0.59839  1.0000
  Mg  Mg5       1.0  0.44475  0.61686  0.22492  1.0000
  Mg  Mg6       1.0  0.32298  0.54672  0.73958  1.0000
  C  Sn13      1.0  0.63982  0.44341  0.58024  1.0000
  C   C103      1.0  0.60997  0.44304  0.47766  1.0000
  C  Sn14      1.0  0.59183  0.41247  0.38390  1.0000
  C  Sn15      1.0  0.60378  0.38161  0.39294  1.0000
  C   C104      1.0  0.63361  0.38199  0.49549  1.0000
  C  Sn16      1.0  0.65177  0.41255  0.58927  1.0000
  O  Te13      1.0  0.65754  0.47427  0.67288  1.0000
  O  Te14      1.0  0.56206  0.41274  0.28220  1.0000
  O  Te15      1.0  0.58603  0.35074  0.30017  1.0000
  O  Te16      1.0  0.68152  0.41229  0.69095  1.0000
  Mg  Mg7       1.0  0.54683  0.36421  0.17992  1.0000
  Mg  Mg8       1.0  0.69675  0.46080  0.79335  1.0000
  C  Sn17      1.0  0.85016  0.92640  0.53731  1.0000
  C   C105      1.0  0.85552  0.89142  0.43602  1.0000
  C  Sn18      1.0  0.88834  0.87939  0.36077  1.0000
  C  Sn19      1.0  0.91639  0.90281  0.38741  1.0000
  C   C106      1.0  0.91103  0.93776  0.48868  1.0000
  C  Sn20      1.0  0.87822  0.94981  0.56396  1.0000
  O  Te17      1.0  0.81714  0.93785  0.61129  1.0000
  O  Te18      1.0  0.89306  0.84431  0.25997  1.0000
  O  Te19      1.0  0.94943  0.89132  0.31333  1.0000
  O  Te20      1.0  0.87349  0.98487  0.66473  1.0000
  Mg  Mg9       1.0  0.94288  0.84117  0.18660  1.0000
  Mg  Mg10      1.0  0.82369  0.98804  0.73823  1.0000
  C  Sn21      1.0  0.09111  0.10830  0.44284  1.0000
  C   C107      1.0  0.12588  0.11697  0.49753  1.0000
  C  Sn22      1.0  0.14844  0.09289  0.51819  1.0000
  C  Sn23      1.0  0.13599  0.05944  0.48335  1.0000
  C   C108      1.0  0.10125  0.05078  0.42867  1.0000
  C  Sn24      1.0  0.07866  0.07485  0.40801  1.0000
  O  Te21      1.0  0.06902  0.13278  0.42306  1.0000
  O  Te22      1.0  0.18309  0.10216  0.57306  1.0000
  O  Te23      1.0  0.15819  0.03495  0.50319  1.0000
  O  Te24      1.0  0.04404  0.06559  0.35314  1.0000
  Mg  Mg11      1.0  0.20311  0.05983  0.58080  1.0000
  Mg  Mg12      1.0  0.02400  0.10789  0.34526  1.0000
  C  Sn25      1.0  0.89789  0.09576  0.36624  1.0000
  C   C109      1.0  0.86403  0.10402  0.43616  1.0000
  C  Sn26      1.0  0.84972  0.08838  0.54426  1.0000
  C  Sn27      1.0  0.86967  0.06399  0.58341  1.0000
  C   C110      1.0  0.90350  0.05574  0.51354  1.0000
  C  Sn28      1.0  0.91784  0.07136  0.40539  1.0000
  O  Te25      1.0  0.91167  0.11171  0.25849  1.0000
  O  Te26      1.0  0.81581  0.09706  0.61256  1.0000
  O  Te27      1.0  0.85592  0.04804  0.69125  1.0000
  O  Te28      1.0  0.95173  0.06271  0.33713  1.0000
  Mg  Mg13      1.0  0.80852  0.06838  0.75285  1.0000
  Mg  Mg14      1.0  0.95905  0.09138  0.19692  1.0000
  C  Sn29      1.0  0.14049  0.94464  0.57672  1.0000
  C   C111      1.0  0.11070  0.94380  0.47273  1.0000
  C  Sn30      1.0  0.09285  0.91301  0.37994  1.0000
  C  Sn31      1.0  0.10502  0.88243  0.39141  1.0000
  C   C112      1.0  0.13478  0.88328  0.49538  1.0000
  C  Sn32      1.0  0.15265  0.91406  0.58820  1.0000
  O  Te29      1.0  0.15791  0.97571  0.66836  1.0000
  O  Te30      1.0  0.06314  0.91280  0.27679  1.0000
  O  Te31      1.0  0.08756  0.85135  0.29966  1.0000
  O  Te32      1.0  0.18234  0.91428  0.69132  1.0000
  Mg  Mg15      1.0  0.04834  0.86415  0.17671  1.0000
  Mg  Mg16      1.0  0.19715  0.96292  0.79153  1.0000
  C  Sn33      1.0  0.40254  0.38692  0.90220  1.0000
  C   C113      1.0  0.37146  0.31245  0.00117  1.0000
  C  Sn34      1.0  0.35357  0.34313  0.09374  1.0000
  C  Sn35      1.0  0.36617  0.37398  0.08717  1.0000
  C   C114      1.0  0.39723  0.44844  0.98822  1.0000
  C  Sn36      1.0  0.41513  0.41777  0.89563  1.0000
  O  Te33      1.0  0.42000  0.35596  0.81069  1.0000
  O  Te34      1.0  0.32339  0.34296  0.19183  1.0000
  O  Te35      1.0  0.34868  0.40495  0.17879  1.0000
  O  Te36      1.0  0.44529  0.41793  0.79756  1.0000
  Mg  Mg17      1.0  0.30874  0.39161  0.29385  1.0000
  Mg  Mg18      1.0  0.45995  0.36930  0.69541  1.0000
  C  Sn37      1.0  0.58964  0.58259  0.85097  1.0000
  C   C115      1.0  0.59845  0.55717  0.91283  1.0000
  C  Sn38      1.0  0.62653  0.48644  0.02758  1.0000
  C  Sn39      1.0  0.64705  0.51672  0.08173  1.0000
  C   C116      1.0  0.63824  0.54212  0.01990  1.0000
  C  Sn40      1.0  0.61016  0.61286  0.90511  1.0000
  O  Te37      1.0  0.56063  0.57782  0.73634  1.0000
  O  Te38      1.0  0.63483  0.46067  0.08762  1.0000
  O  Te39      1.0  0.67608  0.52147  0.19644  1.0000
  O  Te40      1.0  0.60186  0.63862  0.84512  1.0000
  Mg  Mg19      1.0  0.67682  0.47905  0.24217  1.0000
  Mg  Mg20      1.0  0.55986  0.62027  0.69065  1.0000
  C  Sn41      1.0  0.35833  0.63592  0.99023  1.0000
  C   C117      1.0  0.39327  0.62969  0.93495  1.0000
  C  Sn42      1.0  0.41356  0.65540  0.91594  1.0000
  C  Sn43      1.0  0.39861  0.68801  0.95305  1.0000
  C   C118      1.0  0.36287  0.61927  0.00832  1.0000
  C  Sn44      1.0  0.34256  0.59358  0.02734  1.0000
  O  Te41      1.0  0.33772  0.53489  0.00835  1.0000
  O  Te42      1.0  0.44843  0.64857  0.86043  1.0000
  O  Te43      1.0  0.41843  0.71409  0.93488  1.0000
  O  Te44      1.0  0.30771  0.60040  0.08284  1.0000
  Mg  Mg21      1.0  0.46474  0.69237  0.85557  1.0000
  Mg  Mg22      1.0  0.29138  0.55662  0.08784  1.0000
  C  Sn45      1.0  0.63896  0.44799  0.07095  1.0000
  C   C119      1.0  0.60820  0.52131  0.97869  1.0000
  C  Sn46      1.0  0.58984  0.49041  0.90046  1.0000
  C  Sn47      1.0  0.60331  0.46052  0.91484  1.0000
  C   C120      1.0  0.63404  0.38720  0.00707  1.0000
  C  Sn48      1.0  0.65243  0.41809  0.08533  1.0000
  O  Te45      1.0  0.65688  0.47915  0.14812  1.0000
  O  Te46      1.0  0.55832  0.48942  0.80885  1.0000
  O  Te47      1.0  0.58536  0.42934  0.83756  1.0000
  O  Te48      1.0  0.68392  0.41909  0.17692  1.0000
  Mg  Mg23      1.0  0.54352  0.44095  0.72659  1.0000
  Mg  Mg24      1.0  0.69874  0.46755  0.25930  1.0000
  C  Sn49      1.0  0.87333  0.94450  0.15334  1.0000
  C   C121      1.0  0.90197  0.94419  0.04433  1.0000
  C  Sn50      1.0  0.90954  0.99043  0.88447  1.0000
  C  Sn51      1.0  0.88716  0.96143  0.83240  1.0000
  C   C122      1.0  0.85853  0.96175  0.94136  1.0000
  C  Sn52      1.0  0.85095  0.91550  0.10127  1.0000
  O  Te49      1.0  0.86709  0.97348  0.31258  1.0000
  O  Te50      1.0  0.93835  0.99072  0.77774  1.0000
  O  Te51      1.0  0.89343  0.93244  0.67301  1.0000
  O  Te52      1.0  0.82216  0.91522  0.20795  1.0000
  Mg  Mg25      1.0  0.93595  0.94514  0.57295  1.0000
  Mg  Mg26      1.0  0.82453  0.96079  0.41270  1.0000
  C  Sn53      1.0  0.15584  0.14815  0.97664  1.0000
  C   C123      1.0  0.14717  0.17557  0.93019  1.0000
  C  Sn54      1.0  0.11213  0.18273  0.90823  1.0000
  C  Sn55      1.0  0.08518  0.16206  0.93333  1.0000
  C   C124      1.0  0.09385  0.13467  0.97978  1.0000
  C  Sn56      1.0  0.12807  0.05254  0.00174  1.0000
  O  Te53      1.0  0.19106  0.14146  0.99790  1.0000
  O  Te54      1.0  0.10410  0.21027  0.86170  1.0000
  O  Te55      1.0  0.04995  0.16877  0.91201  1.0000
  O  Te56      1.0  0.13610  0.02502  0.04826  1.0000
  Mg  Mg27      1.0  0.05225  0.20913  0.84811  1.0000
  Mg  Mg28      1.0  0.18794  0.02614  0.06198  1.0000
  C  Sn57      1.0  0.85912  0.13753  0.98562  1.0000
  C   C125      1.0  0.89399  0.13042  0.93051  1.0000
  C  Sn58      1.0  0.91520  0.15567  0.91272  1.0000
  C  Sn59      1.0  0.90127  0.18872  0.95091  1.0000
  C   C126      1.0  0.86560  0.12086  0.00601  1.0000
  C  Sn60      1.0  0.84437  0.09563  0.02381  1.0000
  O  Te57      1.0  0.83756  0.03695  0.00250  1.0000
  O  Te58      1.0  0.94998  0.14795  0.85736  1.0000
  O  Te59      1.0  0.92204  0.21435  0.93398  1.0000
  O  Te60      1.0  0.80961  0.10334  0.07916  1.0000
  Mg  Mg29      1.0  0.96780  0.19143  0.85437  1.0000
  Mg  Mg30      1.0  0.79177  0.05989  0.08229  1.0000
  C  Sn61      1.0  0.10456  0.88620  0.81323  1.0000
  C   C127      1.0  0.13492  0.88622  0.91159  1.0000
  C  Sn62      1.0  0.14356  0.84037  0.06472  1.0000
  C  Sn63      1.0  0.12221  0.87006  0.12079  1.0000
  C   C128      1.0  0.09186  0.87003  0.02248  1.0000
  C  Sn64      1.0  0.08321  0.91590  0.86930  1.0000
  O  Te61      1.0  0.09561  0.85683  0.66057  1.0000
  O  Te62      1.0  0.17404  0.83978  0.16082  1.0000
  O  Te63      1.0  0.13119  0.89945  0.27358  1.0000
  O  Te64      1.0  0.05274  0.91648  0.77324  1.0000
  Mg  Mg31      1.0  0.17519  0.88611  0.35977  1.0000
  Mg  Mg32      1.0  0.05156  0.87016  0.57434  1.0000
  C  Sn65      1.0  0.78501  0.81105  0.99065  1.0000
  C   C129      1.0  0.77857  0.84100  0.96332  1.0000
  C  Sn66      1.0  0.74468  0.85438  0.98126  1.0000
  C  Sn67      1.0  0.71583  0.76254  0.02760  1.0000
  C   C130      1.0  0.72228  0.73262  0.05494  1.0000
  C  Sn68      1.0  0.75616  0.71922  0.03699  1.0000
  O  Te65      1.0  0.81910  0.79814  0.97202  1.0000
  O  Te66      1.0  0.73888  0.88434  0.95320  1.0000
  O  Te67      1.0  0.68173  0.77548  0.04622  1.0000
  O  Te68      1.0  0.76197  0.68928  0.06506  1.0000
  Mg  Mg33      1.0  0.68787  0.89195  0.99441  1.0000
  Mg  Mg34      1.0  0.81298  0.68165  0.02398  1.0000
  C  Sn69      1.0  0.23246  0.20716  0.03929  1.0000
  C   C131      1.0  0.26897  0.20634  0.05264  1.0000
  C  Sn70      1.0  0.28595  0.17627  0.03792  1.0000
  C  Sn71      1.0  0.26604  0.14639  0.00916  1.0000
  C   C132      1.0  0.23039  0.22216  0.99579  1.0000
  C  Sn72      1.0  0.21255  0.17728  0.01052  1.0000
  O  Te69      1.0  0.21603  0.23750  0.05439  1.0000
  O  Te70      1.0  0.32248  0.17608  0.05178  1.0000
  O  Te71      1.0  0.28333  0.19098  0.99406  1.0000
  O  Te72      1.0  0.17688  0.25243  0.99665  1.0000
  Mg  Mg35      1.0  0.33282  0.12855  0.02211  1.0000
  Mg  Mg36      1.0  0.16568  0.22499  0.02620  1.0000
  C  Sn73      1.0  0.76750  0.27453  0.93085  1.0000
  C   C133      1.0  0.73139  0.27533  0.96139  1.0000
  C  Sn74      1.0  0.71589  0.18077  0.04788  1.0000
  C  Sn75      1.0  0.73777  0.15995  0.10517  1.0000
  C   C134      1.0  0.77385  0.15916  0.07466  1.0000
  C  Sn76      1.0  0.78937  0.25371  0.98813  1.0000
  O  Te73      1.0  0.78159  0.29435  0.84413  1.0000
  O  Te74      1.0  0.67973  0.18198  0.07685  1.0000
  O  Te75      1.0  0.72364  0.14013  0.19194  1.0000
  O  Te76      1.0  0.82551  0.25252  0.95919  1.0000
  Mg  Mg37      1.0  0.67289  0.15040  0.20076  1.0000
  Mg  Mg38      1.0  0.83238  0.28410  0.83539  1.0000
  C  Sn77      1.0  0.22898  0.79322  0.95191  1.0000
  C   C135      1.0  0.26544  0.79666  0.96447  1.0000
  C  Sn78      1.0  0.28026  0.75377  0.01003  1.0000
  C  Sn79      1.0  0.25901  0.78301  0.04387  1.0000
  C   C136      1.0  0.22257  0.77957  0.03135  1.0000
  C  Sn80      1.0  0.20773  0.82247  0.98575  1.0000
  O  Te77      1.0  0.21390  0.76093  0.90617  1.0000
  O  Te78      1.0  0.31677  0.75656  0.02170  1.0000
  O  Te79      1.0  0.27412  0.81533  0.08964  1.0000
  O  Te80      1.0  0.17124  0.81967  0.97412  1.0000
  Mg  Mg39      1.0  0.32499  0.80606  0.08865  1.0000
  Mg  Mg40      1.0  0.16299  0.77019  0.90727  1.0000
  C  Sn81      1.0  0.76749  0.73229  0.59925  1.0000
  C   C137      1.0  0.73125  0.73150  0.57127  1.0000
  C  Sn82      1.0  0.71592  0.75196  0.49123  1.0000
  C  Sn83      1.0  0.73726  0.77365  0.43793  1.0000
  C   C138      1.0  0.77348  0.77442  0.46588  1.0000
  C  Sn84      1.0  0.78883  0.75397  0.54595  1.0000
  O  Te81      1.0  0.78225  0.71161  0.67950  1.0000
  O  Te82      1.0  0.67964  0.75075  0.46471  1.0000
  O  Te83      1.0  0.72247  0.79433  0.35763  1.0000
  O  Te84      1.0  0.82509  0.75517  0.57245  1.0000
  Mg  Mg41      1.0  0.67182  0.78368  0.34991  1.0000
  Mg  Mg42      1.0  0.83294  0.72224  0.68714  1.0000
  C  Sn85      1.0  0.22768  0.28617  0.53601  1.0000
  C   C139      1.0  0.26399  0.28500  0.55683  1.0000
  C  Sn86      1.0  0.28023  0.25462  0.54276  1.0000
  C  Sn87      1.0  0.25975  0.22479  0.50701  1.0000
  C   C140      1.0  0.22347  0.22597  0.48618  1.0000
  C  Sn88      1.0  0.20720  0.25634  0.50027  1.0000
  O  Te85      1.0  0.21200  0.31682  0.55062  1.0000
  O  Te86      1.0  0.31657  0.25408  0.56415  1.0000
  O  Te87      1.0  0.27546  0.19413  0.49242  1.0000
  O  Te88      1.0  0.17089  0.25689  0.47886  1.0000
  Mg  Mg43      1.0  0.32581  0.20622  0.53208  1.0000
  Mg  Mg44      1.0  0.16162  0.30473  0.51081  1.0000
  C  Sn89      1.0  0.76422  0.26921  0.44099  1.0000
  C   C141      1.0  0.72818  0.26949  0.47233  1.0000
  C  Sn90      1.0  0.71407  0.24947  0.55789  1.0000
  C  Sn91      1.0  0.73645  0.22876  0.61341  1.0000
  C   C142      1.0  0.77247  0.22849  0.58209  1.0000
  C  Sn92      1.0  0.78660  0.24850  0.49650  1.0000
  O  Te89      1.0  0.77776  0.28942  0.35523  1.0000
  O  Te90      1.0  0.67795  0.25016  0.58770  1.0000
  O  Te91      1.0  0.72288  0.20853  0.69922  1.0000
  O  Te92      1.0  0.82270  0.24781  0.46672  1.0000
  Mg  Mg45      1.0  0.67198  0.21817  0.70975  1.0000
  Mg  Mg46      1.0  0.82870  0.27981  0.34477  1.0000
  C  Sn93      1.0  0.28241  0.76928  0.57570  1.0000
  C   C143      1.0  0.27646  0.73625  0.56694  1.0000
  C  Sn94      1.0  0.24394  0.72039  0.51018  1.0000
  C  Sn95      1.0  0.21680  0.73791  0.46103  1.0000
  C   C144      1.0  0.22276  0.77092  0.46977  1.0000
  C  Sn96      1.0  0.25528  0.78680  0.52655  1.0000
  O  Te93      1.0  0.31513  0.78464  0.63282  1.0000
  O  Te94      1.0  0.23860  0.68736  0.50259  1.0000
  O  Te95      1.0  0.18407  0.72252  0.40388  1.0000
  O  Te96      1.0  0.26062  0.81981  0.53412  1.0000
  Mg  Mg47      1.0  0.18953  0.67722  0.41607  1.0000
  Mg  Mg48      1.0  0.30968  0.82996  0.62052  1.0000
