data_image0
_chemical_formula_structural       H52C84N16O8SnCSn2CSnTe4Mg2SnCSn2CSnTe4Mg2SnCSn2CSnTe4Mg2SnCSn2CSnTe4Mg2SnCSn2CSnTe4Mg2SnCSn2CSnTe4Mg2
_chemical_formula_sum              "H52 C96 N16 O8 Sn24 Te24 Mg12"
_cell_length_a       24.8605
_cell_length_b       23.7296
_cell_length_c       9.19051
_cell_angle_alpha    89.1064
_cell_angle_beta     93.207
_cell_angle_gamma    97.9569

_symmetry_space_group_name_H-M    'P1'
_space_group_IT_number       1

loop_
  _space_group_symop_operation_xyz
  'x, y, z'

loop_
  _atom_site_type_symbol
  _atom_site_label
  _atom_site_symmetry_multiplicity
  _atom_site_fract_x
  _atom_site_fract_y
  _atom_site_fract_z
  _atom_site_occupancy
  H   H1        1.0  0.83077  0.67183  0.09291  1.0000
  H   H2        1.0  0.16683  0.33220  0.41330  1.0000
  H   H3        1.0  0.90397  0.56808  0.40601  1.0000
  H   H4        1.0  0.09425  0.43427  0.09754  1.0000
  H   H5        1.0  0.70535  0.23522  0.20580  1.0000
  H   H6        1.0  0.29732  0.76838  0.32046  1.0000
  H   H7        1.0  0.59636  0.09291  0.07005  1.0000
  H   H8        1.0  0.41393  0.90404  0.43092  1.0000
  H   H9        1.0  0.59177  0.01134  0.39180  1.0000
  H   H10       1.0  0.41562  0.98635  0.10179  1.0000
  H   H11       1.0  0.48863  0.06441  0.03984  1.0000
  H   H12       1.0  0.51868  0.93333  0.45459  1.0000
  H   H13       1.0  0.56290  0.69128  0.26446  1.0000
  H   H14       1.0  0.43402  0.30728  0.22635  1.0000
  H   H15       1.0  0.39568  0.57591  0.37508  1.0000
  H   H16       1.0  0.60523  0.42125  0.14481  1.0000
  H   H17       1.0  0.36048  0.47485  0.35715  1.0000
  H   H18       1.0  0.63950  0.52247  0.15531  1.0000
  H   H19       1.0  0.66219  0.56544  0.41134  1.0000
  H   H20       1.0  0.64160  0.69431  0.08629  1.0000
  H   H21       1.0  0.76264  0.58361  0.38886  1.0000
  H   H22       1.0  0.74141  0.71186  0.06350  1.0000
  H   H23       1.0  0.83094  0.66976  0.58999  1.0000
  H   H24       1.0  0.16939  0.33651  0.90858  1.0000
  H   H25       1.0  0.90837  0.57445  0.91181  1.0000
  H   H26       1.0  0.09299  0.43503  0.59172  1.0000
  H   H27       1.0  0.70298  0.23152  0.68175  1.0000
  H   H28       1.0  0.29587  0.76693  0.82383  1.0000
  H   H29       1.0  0.58539  0.09724  0.55695  1.0000
  H   H30       1.0  0.41453  0.90067  0.92918  1.0000
  H   H31       1.0  0.43788  0.79513  0.94457  1.0000
  H   H32       1.0  0.55815  0.19930  0.57106  1.0000
  H   H33       1.0  0.32852  0.69425  0.63909  1.0000
  H   H34       1.0  0.67280  0.30484  0.85382  1.0000
  H   H35       1.0  0.50386  0.72578  0.93182  1.0000
  H   H36       1.0  0.49384  0.26985  0.58015  1.0000
  H   H37       1.0  0.39630  0.62831  0.61649  1.0000
  H   H38       1.0  0.60633  0.37236  0.87430  1.0000
  H   H39       1.0  0.56341  0.69254  0.75463  1.0000
  H   H40       1.0  0.43660  0.30765  0.73723  1.0000
  H   H41       1.0  0.39380  0.57771  0.85076  1.0000
  H   H42       1.0  0.60809  0.42206  0.65333  1.0000
  H   H43       1.0  0.36035  0.47615  0.84196  1.0000
  H   H44       1.0  0.64106  0.52356  0.65877  1.0000
  H   H45       1.0  0.66156  0.56814  0.91136  1.0000
  H   H46       1.0  0.33996  0.43477  0.58504  1.0000
  H   H47       1.0  0.64258  0.69371  0.57671  1.0000
  H   H48       1.0  0.35663  0.30739  0.91585  1.0000
  H   H49       1.0  0.76216  0.58530  0.89105  1.0000
  H   H50       1.0  0.23935  0.42059  0.60803  1.0000
  H   H51       1.0  0.74255  0.71104  0.55742  1.0000
  H   H52       1.0  0.25658  0.29282  0.93762  1.0000
  C   C1        1.0  0.81560  0.64788  0.18909  1.0000
  C   C2        1.0  0.18256  0.35582  0.31729  1.0000
  C   C3        1.0  0.66368  0.21387  0.21646  1.0000
  C   C4        1.0  0.33892  0.78827  0.30146  1.0000
  C   C5        1.0  0.54450  0.04318  0.21339  1.0000
  C   C6        1.0  0.46264  0.95451  0.28149  1.0000
  C   C7        1.0  0.55300  0.00581  0.32927  1.0000
  C   C8        1.0  0.45433  0.99160  0.16452  1.0000
  C   C9        1.0  0.49500  0.03570  0.13071  1.0000
  C   C10       1.0  0.51236  0.96181  0.36328  1.0000
  C   C11       1.0  0.49295  0.62790  0.28116  1.0000
  C   C12       1.0  0.50536  0.36988  0.22399  1.0000
  C   C13       1.0  0.47397  0.56860  0.28914  1.0000
  C   C14       1.0  0.52528  0.42909  0.22028  1.0000
  C   C15       1.0  0.54838  0.64580  0.26386  1.0000
  C   C16       1.0  0.44935  0.35249  0.23352  1.0000
  C   C17       1.0  0.50968  0.52870  0.25714  1.0000
  C   C18       1.0  0.48952  0.46914  0.25021  1.0000
  C   C19       1.0  0.42072  0.54663  0.33256  1.0000
  C   C20       1.0  0.57931  0.45080  0.18173  1.0000
  C   C21       1.0  0.58541  0.60739  0.24664  1.0000
  C   C22       1.0  0.41277  0.39119  0.25346  1.0000
  C   C23       1.0  0.56549  0.54829  0.23279  1.0000
  C   C24       1.0  0.43356  0.44975  0.27316  1.0000
  C   C25       1.0  0.40122  0.49001  0.32381  1.0000
  C   C26       1.0  0.59850  0.50762  0.18750  1.0000
  C   C27       1.0  0.64458  0.62642  0.24491  1.0000
  C   C28       1.0  0.67977  0.59714  0.33450  1.0000
  C   C29       1.0  0.66788  0.67037  0.15417  1.0000
  C   C30       1.0  0.73551  0.60738  0.32359  1.0000
  C   C31       1.0  0.72418  0.68028  0.14141  1.0000
  C   C32       1.0  0.75856  0.64725  0.22138  1.0000
  C   C33       1.0  0.89492  0.60589  0.20935  1.0000
  C   C34       1.0  0.10451  0.39999  0.29829  1.0000
  C   C35       1.0  0.60987  0.12729  0.27415  1.0000
  C   C36       1.0  0.39255  0.87331  0.22595  1.0000
  C   C37       1.0  0.81569  0.64757  0.68845  1.0000
  C   C38       1.0  0.18482  0.35910  0.81073  1.0000
  C   C39       1.0  0.66208  0.20954  0.70048  1.0000
  C   C40       1.0  0.33686  0.78756  0.80088  1.0000
  C   C41       1.0  0.37878  0.74936  0.79255  1.0000
  C   C42       1.0  0.61992  0.24714  0.71217  1.0000
  C   C43       1.0  0.42913  0.75884  0.87183  1.0000
  C   C44       1.0  0.56834  0.23679  0.63917  1.0000
  C   C45       1.0  0.36704  0.70132  0.70287  1.0000
  C   C46       1.0  0.63331  0.29696  0.79481  1.0000
  C   C47       1.0  0.46619  0.71993  0.86402  1.0000
  C   C48       1.0  0.53220  0.27670  0.64464  1.0000
  C   C49       1.0  0.40493  0.66390  0.69132  1.0000
  C   C50       1.0  0.59621  0.33532  0.80486  1.0000
  C   C51       1.0  0.45468  0.67162  0.77486  1.0000
  C   C52       1.0  0.54545  0.32704  0.72596  1.0000
  C   C53       1.0  0.49294  0.62928  0.76840  1.0000
  C   C54       1.0  0.50790  0.37020  0.73016  1.0000
  C   C55       1.0  0.47400  0.56992  0.77695  1.0000
  C   C56       1.0  0.52739  0.42962  0.72394  1.0000
  C   C57       1.0  0.54857  0.64716  0.75433  1.0000
  C   C58       1.0  0.45187  0.35292  0.74031  1.0000
  C   C59       1.0  0.51041  0.52975  0.75183  1.0000
  C   C60       1.0  0.49101  0.46991  0.74870  1.0000
  C   C61       1.0  0.42010  0.54819  0.81574  1.0000
  C   C62       1.0  0.58147  0.45157  0.68666  1.0000
  C   C63       1.0  0.58582  0.60869  0.74101  1.0000
  C   C64       1.0  0.41488  0.39166  0.75406  1.0000
  C   C65       1.0  0.56631  0.54946  0.72980  1.0000
  C   C66       1.0  0.43492  0.45059  0.76908  1.0000
  C   C67       1.0  0.40143  0.49129  0.81132  1.0000
  C   C68       1.0  0.59997  0.50858  0.68968  1.0000
  C   C69       1.0  0.64495  0.62780  0.74099  1.0000
  C   C70       1.0  0.35547  0.37375  0.75293  1.0000
  C   C71       1.0  0.67968  0.59921  0.83378  1.0000
  C   C72       1.0  0.32130  0.40375  0.66198  1.0000
  C   C73       1.0  0.66858  0.67076  0.64810  1.0000
  C   C74       1.0  0.33100  0.33120  0.84558  1.0000
  C   C75       1.0  0.73546  0.60909  0.82430  1.0000
  C   C76       1.0  0.26553  0.39576  0.67345  1.0000
  C   C77       1.0  0.72495  0.68045  0.63707  1.0000
  C   C78       1.0  0.27464  0.32325  0.85823  1.0000
  C   C79       1.0  0.75890  0.64808  0.72068  1.0000
  C   C80       1.0  0.24137  0.35711  0.77688  1.0000
  C   C81       1.0  0.89352  0.60390  0.70772  1.0000
  C   C82       1.0  0.10728  0.40362  0.79373  1.0000
  C   C83       1.0  0.61232  0.12095  0.76488  1.0000
  C   C84       1.0  0.38901  0.87264  0.72399  1.0000
  N   N1        1.0  0.91905  0.57054  0.30406  1.0000
  N   N2        1.0  0.07923  0.43275  0.19961  1.0000
  N   N3        1.0  0.58660  0.08713  0.17769  1.0000
  N   N4        1.0  0.42073  0.91125  0.32153  1.0000
  N   N5        1.0  0.84509  0.61627  0.26584  1.0000
  N   N6        1.0  0.15377  0.38835  0.24157  1.0000
  N   N7        1.0  0.65818  0.15961  0.23019  1.0000
  N   N8        1.0  0.34530  0.84205  0.27872  1.0000
  N   N9        1.0  0.92094  0.57348  0.80748  1.0000
  N   N10       1.0  0.08051  0.43554  0.69630  1.0000
  N   N11       1.0  0.58234  0.08583  0.66604  1.0000
  N   N12       1.0  0.41897  0.90918  0.81931  1.0000
  N   N13       1.0  0.84510  0.61654  0.76735  1.0000
  N   N14       1.0  0.15585  0.39118  0.73386  1.0000
  N   N15       1.0  0.65776  0.15531  0.71172  1.0000
  N   N16       1.0  0.34219  0.84140  0.77955  1.0000
  O   O1        1.0  0.91178  0.62169  0.08873  1.0000
  O   O2        1.0  0.08887  0.38707  0.42199  1.0000
  O   O3        1.0  0.59440  0.13319  0.39922  1.0000
  O   O4        1.0  0.40289  0.86902  0.09577  1.0000
  O   O5        1.0  0.90654  0.61389  0.58045  1.0000
  O   O6        1.0  0.09359  0.39190  0.91975  1.0000
  O   O7        1.0  0.60516  0.12035  0.89790  1.0000
  O   O8        1.0  0.39735  0.86935  0.59222  1.0000
  C  Sn1       1.0  0.97947  0.48687  0.88849  1.0000
  C   C85       1.0  0.97147  0.53803  0.81870  1.0000
  C  Sn2       1.0  0.99547  0.55333  0.68739  1.0000
  C  Sn3       1.0  0.02813  0.51672  0.62445  1.0000
  C   C86       1.0  0.03610  0.46559  0.69422  1.0000
  C  Sn4       1.0  0.01212  0.45026  0.82556  1.0000
  O  Te1       1.0  0.93481  0.47553  0.01968  1.0000
  O  Te2       1.0  0.98690  0.60471  0.61967  1.0000
  O  Te3       1.0  0.05252  0.53121  0.49316  1.0000
  O  Te4       1.0  0.02067  0.39892  0.89324  1.0000
  Mg  Mg1       1.0  0.02877  0.60564  0.44241  1.0000
  Mg  Mg2       1.0  0.95854  0.40103  0.07046  1.0000
  C  Sn5       1.0  0.97547  0.48238  0.38320  1.0000
  C   C87       1.0  0.96929  0.53468  0.31700  1.0000
  C  Sn6       1.0  0.99572  0.55157  0.19009  1.0000
  C  Sn7       1.0  0.02901  0.51541  0.12798  1.0000
  C   C88       1.0  0.03518  0.46314  0.19416  1.0000
  C  Sn8       1.0  0.00876  0.44622  0.32110  1.0000
  O  Te5       1.0  0.94866  0.46636  0.51002  1.0000
  O  Te6       1.0  0.98893  0.60406  0.12591  1.0000
  O  Te7       1.0  0.05583  0.53147  0.00106  1.0000
  O  Te8       1.0  0.01553  0.39376  0.38525  1.0000
  Mg  Mg3       1.0  0.05411  0.60389  0.95401  1.0000
  Mg  Mg4       1.0  0.97062  0.39077  0.55709  1.0000
  C  Sn9       1.0  0.56905  0.25508  0.09513  1.0000
  C   C89       1.0  0.61784  0.25657  0.17913  1.0000
  C  Sn10      1.0  0.62834  0.29200  0.30031  1.0000
  C  Sn11      1.0  0.58923  0.32664  0.33840  1.0000
  C   C90       1.0  0.54047  0.32514  0.25444  1.0000
  C  Sn12      1.0  0.52994  0.28973  0.13321  1.0000
  O  Te9       1.0  0.57968  0.21624  0.97444  1.0000
  O  Te10      1.0  0.67742  0.29277  0.38260  1.0000
  O  Te11      1.0  0.59891  0.36240  0.45919  1.0000
  O  Te12      1.0  0.48089  0.28894  0.05097  1.0000
  Mg  Mg5       1.0  0.67178  0.34850  0.53721  1.0000
  Mg  Mg6       1.0  0.50675  0.23011  0.89638  1.0000
  C  Sn13      1.0  0.31654  0.31356  0.32802  1.0000
  C   C91       1.0  0.34618  0.35280  0.23774  1.0000
  C  Sn14      1.0  0.32231  0.39764  0.17328  1.0000
  C  Sn15      1.0  0.26767  0.40340  0.19967  1.0000
  C   C92       1.0  0.23806  0.36418  0.28991  1.0000
  C  Sn16      1.0  0.26190  0.31932  0.35440  1.0000
  O  Te13      1.0  0.34123  0.26906  0.39132  1.0000
  O  Te14      1.0  0.35275  0.43634  0.08340  1.0000
  O  Te15      1.0  0.24299  0.44794  0.13627  1.0000
  O  Te16      1.0  0.23149  0.28065  0.44425  1.0000
  Mg  Mg7       1.0  0.30116  0.48981  0.02214  1.0000
  Mg  Mg8       1.0  0.28305  0.22717  0.50563  1.0000
  C  Sn17      1.0  0.68350  0.98010  0.79353  1.0000
  C   C93       1.0  0.54712  0.02498  0.69517  1.0000
  C  Sn18      1.0  0.49610  0.03746  0.64391  1.0000
  C  Sn19      1.0  0.44832  0.00442  0.69203  1.0000
  C   C94       1.0  0.58471  0.95957  0.79035  1.0000
  C  Sn20      1.0  0.63571  0.94705  0.84165  1.0000
  O  Te17      1.0  0.73492  0.96839  0.84334  1.0000
  O  Te18      1.0  0.49289  0.08253  0.54558  1.0000
  O  Te19      1.0  0.39687  0.01617  0.64212  1.0000
  O  Te20      1.0  0.63894  0.90202  0.93993  1.0000
  Mg  Mg9       1.0  0.41356  0.08188  0.50905  1.0000
  Mg  Mg10      1.0  0.71824  0.90265  0.97659  1.0000
  C  Sn21      1.0  0.36536  0.67882  0.24844  1.0000
  C   C95       1.0  0.37139  0.73006  0.32447  1.0000
  C  Sn22      1.0  0.42295  0.75584  0.37407  1.0000
  C  Sn23      1.0  0.46946  0.72991  0.34703  1.0000
  C   C96       1.0  0.46342  0.67871  0.27102  1.0000
  C  Sn24      1.0  0.41188  0.65289  0.22140  1.0000
  O  Te21      1.0  0.31343  0.65380  0.19986  1.0000
  O  Te22      1.0  0.42795  0.80705  0.44989  1.0000
  O  Te23      1.0  0.52142  0.75498  0.39569  1.0000
  O  Te24      1.0  0.40686  0.60172  0.14560  1.0000
  Mg  Mg11      1.0  0.50732  0.82468  0.49398  1.0000
  Mg  Mg12      1.0  0.32752  0.58406  0.10139  1.0000
