data_image0
_chemical_formula_structural       H96C168N32O16SnCSn2CSnTe4Mg2SnCSn2CSnTe4Mg2SnCSn2CSnTe4Mg2SnCSn2CSnTe4Mg2SnCSn2CSnTe4Mg2SnCSn2CSnTe4Mg2SnCSn2CSnTe4Mg2SnCSn2CSnTe4Mg2SnCSn2CSnTe4Mg2SnCSn2CSnTe4Mg2SnCSn2CSnTe4Mg2SnCSn2CSnTe4Mg2
_chemical_formula_sum              "H96 C192 N32 O16 Sn48 Te48 Mg24"
_cell_length_a       38.1401
_cell_length_b       42.5475
_cell_length_c       8.00083
_cell_angle_alpha    113.489
_cell_angle_beta     90.2242
_cell_angle_gamma    90.0036

_symmetry_space_group_name_H-M    'P1'
_space_group_IT_number       1

loop_
  _space_group_symop_operation_xyz
  'x, y, z'

loop_
  _atom_site_type_symbol
  _atom_site_label
  _atom_site_symmetry_multiplicity
  _atom_site_fract_x
  _atom_site_fract_y
  _atom_site_fract_z
  _atom_site_occupancy
  H   H1        1.0  0.53100  0.43007  0.08074  1.0000
  H   H2        1.0  0.46858  0.58770  0.08038  1.0000
  H   H3        1.0  0.53188  0.58719  0.08306  1.0000
  H   H4        1.0  0.46662  0.42989  0.07586  1.0000
  H   H5        1.0  0.03012  0.92786  0.06172  1.0000
  H   H6        1.0  0.96872  0.08712  0.07804  1.0000
  H   H7        1.0  0.03202  0.08610  0.07176  1.0000
  H   H8        1.0  0.96596  0.92842  0.06250  1.0000
  H   H9        1.0  0.55871  0.57541  0.34546  1.0000
  H   H10       1.0  0.44459  0.57799  0.36737  1.0000
  H   H11       1.0  0.56766  0.40418  0.28179  1.0000
  H   H12       1.0  0.93791  0.90086  0.27867  1.0000
  H   H13       1.0  0.59428  0.62480  0.35887  1.0000
  H   H14       1.0  0.40866  0.62678  0.37775  1.0000
  H   H15       1.0  0.60356  0.35497  0.27166  1.0000
  H   H16       1.0  0.89881  0.85268  0.25491  1.0000
  H   H17       1.0  0.33101  0.42605  0.19965  1.0000
  H   H18       1.0  0.67911  0.59198  0.08889  1.0000
  H   H19       1.0  0.31933  0.59094  0.09164  1.0000
  H   H20       1.0  0.16922  0.92321  0.16173  1.0000
  H   H21       1.0  0.36659  0.47554  0.20639  1.0000
  H   H22       1.0  0.64217  0.54316  0.08382  1.0000
  H   H23       1.0  0.35774  0.54265  0.08175  1.0000
  H   H24       1.0  0.13328  0.97306  0.17638  1.0000
  H   H25       1.0  0.35051  0.33300  0.39588  1.0000
  H   H26       1.0  0.64365  0.65986  0.44797  1.0000
  H   H27       1.0  0.35632  0.65824  0.43395  1.0000
  H   H28       1.0  0.65142  0.33092  0.37196  1.0000
  H   H29       1.0  0.84959  0.82969  0.35075  1.0000
  H   H30       1.0  0.13941  0.16125  0.42028  1.0000
  H   H31       1.0  0.85532  0.15743  0.44878  1.0000
  H   H32       1.0  0.14989  0.83167  0.38923  1.0000
  H   H33       1.0  0.68719  0.75936  0.96551  1.0000
  H   H34       1.0  0.30917  0.76366  0.01574  1.0000
  H   H35       1.0  0.81411  0.74456  0.05956  1.0000
  H   H36       1.0  0.18213  0.73647  0.98682  1.0000
  H   H37       1.0  0.73044  0.80263  0.95528  1.0000
  H   H38       1.0  0.26536  0.80510  0.99174  1.0000
  H   H39       1.0  0.77146  0.70245  0.07298  1.0000
  H   H40       1.0  0.22584  0.69471  0.00520  1.0000
  H   H41       1.0  0.23253  0.17904  0.13034  1.0000
  H   H42       1.0  0.77151  0.84152  0.13407  1.0000
  H   H43       1.0  0.22182  0.83761  0.13557  1.0000
  H   H44       1.0  0.77128  0.18395  0.14305  1.0000
  H   H45       1.0  0.73274  0.67772  0.10769  1.0000
  H   H46       1.0  0.27561  0.33927  0.15275  1.0000
  H   H47       1.0  0.72956  0.34374  0.13942  1.0000
  H   H48       1.0  0.26601  0.67907  0.12883  1.0000
  H   H49       1.0  0.53370  0.42489  0.56272  1.0000
  H   H50       1.0  0.46990  0.58549  0.60416  1.0000
  H   H51       1.0  0.53346  0.58471  0.58554  1.0000
  H   H52       1.0  0.46914  0.42473  0.56048  1.0000
  H   H53       1.0  0.03538  0.92492  0.55276  1.0000
  H   H54       1.0  0.96819  0.08405  0.59186  1.0000
  H   H55       1.0  0.03198  0.08511  0.59236  1.0000
  H   H56       1.0  0.97085  0.92457  0.56013  1.0000
  H   H57       1.0  0.43323  0.40705  0.78742  1.0000
  H   H58       1.0  0.55767  0.57776  0.84428  1.0000
  H   H59       1.0  0.44108  0.58154  0.85771  1.0000
  H   H60       1.0  0.06107  0.90506  0.78676  1.0000
  H   H61       1.0  0.39678  0.35800  0.77461  1.0000
  H   H62       1.0  0.59368  0.62647  0.85258  1.0000
  H   H63       1.0  0.40345  0.62942  0.87053  1.0000
  H   H64       1.0  0.09658  0.85540  0.77237  1.0000
  H   H65       1.0  0.67992  0.59066  0.59373  1.0000
  H   H66       1.0  0.32083  0.58823  0.57427  1.0000
  H   H67       1.0  0.67012  0.42297  0.69673  1.0000
  H   H68       1.0  0.82938  0.92267  0.65131  1.0000
  H   H69       1.0  0.64371  0.54110  0.58399  1.0000
  H   H70       1.0  0.35806  0.54023  0.57692  1.0000
  H   H71       1.0  0.63440  0.47252  0.70397  1.0000
  H   H72       1.0  0.86762  0.97131  0.66656  1.0000
  H   H73       1.0  0.35163  0.33335  0.88200  1.0000
  H   H74       1.0  0.64568  0.66015  0.93143  1.0000
  H   H75       1.0  0.35092  0.65954  0.93188  1.0000
  H   H76       1.0  0.64866  0.33575  0.89962  1.0000
  H   H77       1.0  0.85176  0.83352  0.88906  1.0000
  H   H78       1.0  0.14685  0.15885  0.93582  1.0000
  H   H79       1.0  0.85506  0.16209  0.93429  1.0000
  H   H80       1.0  0.14528  0.83065  0.86374  1.0000
  H   H81       1.0  0.30864  0.24579  0.56216  1.0000
  H   H82       1.0  0.31416  0.76372  0.52026  1.0000
  H   H83       1.0  0.18322  0.26420  0.46113  1.0000
  H   H84       1.0  0.18711  0.73610  0.48669  1.0000
  H   H85       1.0  0.26436  0.20444  0.56922  1.0000
  H   H86       1.0  0.27006  0.80630  0.51238  1.0000
  H   H87       1.0  0.22804  0.30643  0.45541  1.0000
  H   H88       1.0  0.23121  0.69346  0.49204  1.0000
  H   H89       1.0  0.22280  0.18575  0.64119  1.0000
  H   H90       1.0  0.77236  0.83986  0.61983  1.0000
  H   H91       1.0  0.22643  0.83797  0.65613  1.0000
  H   H92       1.0  0.76933  0.17751  0.63766  1.0000
  H   H93       1.0  0.73281  0.67619  0.60177  1.0000
  H   H94       1.0  0.27042  0.34337  0.64199  1.0000
  H   H95       1.0  0.72806  0.33835  0.64228  1.0000
  H   H96       1.0  0.26966  0.67697  0.61434  1.0000
  C   C1        1.0  0.51696  0.44933  0.04996  1.0000
  C   C2        1.0  0.48196  0.56345  0.04522  1.0000
  C   C3        1.0  0.51785  0.56317  0.04548  1.0000
  C   C4        1.0  0.48098  0.44928  0.04765  1.0000
  C   C5        1.0  0.01622  0.94767  0.03511  1.0000
  C   C6        1.0  0.98203  0.06276  0.04054  1.0000
  C   C7        1.0  0.01795  0.06219  0.03737  1.0000
  C   C8        1.0  0.98025  0.94808  0.03631  1.0000
  C   C9        1.0  0.53648  0.47515  0.02102  1.0000
  C   C10       1.0  0.46199  0.53309  0.00829  1.0000
  C   C11       1.0  0.53721  0.53244  0.00615  1.0000
  C   C12       1.0  0.46180  0.47517  0.01697  1.0000
  C   C13       1.0  0.03588  0.97351  0.00689  1.0000
  C   C14       1.0  0.96189  0.03253  0.00330  1.0000
  C   C15       1.0  0.03716  0.03142  0.99894  1.0000
  C   C16       1.0  0.96128  0.97458  0.01042  1.0000
  C   C17       1.0  0.42662  0.47138  0.50580  1.0000
  C   C18       1.0  0.57650  0.52838  0.48988  1.0000
  C   C19       1.0  0.42624  0.52945  0.50110  1.0000
  C   C20       1.0  0.57625  0.47138  0.50840  1.0000
  C   C21       1.0  0.92739  0.96936  0.49551  1.0000
  C   C22       1.0  0.07591  0.02929  0.48374  1.0000
  C   C23       1.0  0.92571  0.02725  0.48877  1.0000
  C   C24       1.0  0.07707  0.97149  0.49346  1.0000
  C   C25       1.0  0.59782  0.55589  0.47531  1.0000
  C   C26       1.0  0.40473  0.55656  0.48253  1.0000
  C   C27       1.0  0.59786  0.44171  0.49802  1.0000
  C   C28       1.0  0.90574  0.93945  0.47798  1.0000
  C   C29       1.0  0.58450  0.57944  0.40821  1.0000
  C   C30       1.0  0.41818  0.58087  0.42151  1.0000
  C   C31       1.0  0.58962  0.40825  0.37520  1.0000
  C   C32       1.0  0.91437  0.90569  0.36154  1.0000
  C   C33       1.0  0.60458  0.60711  0.41452  1.0000
  C   C34       1.0  0.39771  0.60810  0.42450  1.0000
  C   C35       1.0  0.61007  0.38069  0.36845  1.0000
  C   C36       1.0  0.89240  0.87866  0.34837  1.0000
  C   C37       1.0  0.63888  0.61203  0.48538  1.0000
  C   C38       1.0  0.36268  0.61175  0.48418  1.0000
  C   C39       1.0  0.63943  0.38559  0.48340  1.0000
  C   C40       1.0  0.86165  0.88433  0.45316  1.0000
  C   C41       1.0  0.35292  0.42216  0.10676  1.0000
  C   C42       1.0  0.65237  0.58876  0.03680  1.0000
  C   C43       1.0  0.34607  0.58864  0.04123  1.0000
  C   C44       1.0  0.14574  0.91945  0.07841  1.0000
  C   C45       1.0  0.37302  0.44977  0.11090  1.0000
  C   C46       1.0  0.63188  0.56160  0.03300  1.0000
  C   C47       1.0  0.36737  0.56187  0.03525  1.0000
  C   C48       1.0  0.12564  0.94722  0.08656  1.0000
  C   C49       1.0  0.34061  0.35855  0.47748  1.0000
  C   C50       1.0  0.65775  0.64215  0.49193  1.0000
  C   C51       1.0  0.34340  0.64152  0.48838  1.0000
  C   C52       1.0  0.65984  0.35584  0.47118  1.0000
  C   C53       1.0  0.84086  0.85499  0.44341  1.0000
  C   C54       1.0  0.15278  0.14513  0.47745  1.0000
  C   C55       1.0  0.84216  0.14080  0.50345  1.0000
  C   C56       1.0  0.15988  0.85684  0.47783  1.0000
  C   C57       1.0  0.72582  0.72858  0.02217  1.0000
  C   C58       1.0  0.27080  0.72729  0.01891  1.0000
  C   C59       1.0  0.77525  0.77682  0.01156  1.0000
  C   C60       1.0  0.22055  0.77370  0.99387  1.0000
  C   C61       1.0  0.71503  0.75718  0.99017  1.0000
  C   C62       1.0  0.28119  0.75861  0.01479  1.0000
  C   C63       1.0  0.78630  0.74796  0.04088  1.0000
  C   C64       1.0  0.21000  0.74234  0.99679  1.0000
  C   C65       1.0  0.73940  0.78122  0.98601  1.0000
  C   C66       1.0  0.25645  0.78165  0.00278  1.0000
  C   C67       1.0  0.76177  0.72429  0.04805  1.0000
  C   C68       1.0  0.23482  0.71933  0.00936  1.0000
  C   C69       1.0  0.69722  0.70405  0.01861  1.0000
  C   C70       1.0  0.30456  0.29836  0.98369  1.0000
  C   C71       1.0  0.69791  0.30243  0.99707  1.0000
  C   C72       1.0  0.29971  0.70332  0.01831  1.0000
  C   C73       1.0  0.19847  0.20339  0.02182  1.0000
  C   C74       1.0  0.80295  0.80004  0.99202  1.0000
  C   C75       1.0  0.19263  0.79623  0.96934  1.0000
  C   C76       1.0  0.80491  0.20785  0.02963  1.0000
  C   C77       1.0  0.48051  0.50383  0.00988  1.0000
  C   C78       1.0  0.51817  0.50364  0.01017  1.0000
  C   C79       1.0  0.98022  0.00314  0.00390  1.0000
  C   C80       1.0  0.01789  0.00261  0.00180  1.0000
  C   C81       1.0  0.41125  0.50019  0.50365  1.0000
  C   C82       1.0  0.59158  0.49976  0.50056  1.0000
  C   C83       1.0  0.91123  0.99813  0.49573  1.0000
  C   C84       1.0  0.09170  0.00052  0.48939  1.0000
  C   C85       1.0  0.51936  0.44512  0.54206  1.0000
  C   C86       1.0  0.48365  0.56129  0.56296  1.0000
  C   C87       1.0  0.51945  0.56082  0.55386  1.0000
  C   C88       1.0  0.48346  0.44494  0.53967  1.0000
  C   C89       1.0  0.02062  0.94459  0.52906  1.0000
  C   C90       1.0  0.98254  0.06019  0.55217  1.0000
  C   C91       1.0  0.01836  0.06084  0.55387  1.0000
  C   C92       1.0  0.98475  0.94437  0.53329  1.0000
  C   C93       1.0  0.53870  0.47196  0.52091  1.0000
  C   C94       1.0  0.46377  0.53078  0.52405  1.0000
  C   C95       1.0  0.53896  0.52991  0.51136  1.0000
  C   C96       1.0  0.46415  0.47168  0.51691  1.0000
  C   C97       1.0  0.03941  0.97116  0.50163  1.0000
  C   C98       1.0  0.96338  0.02897  0.50613  1.0000
  C   C99       1.0  0.03853  0.03038  0.51028  1.0000
  C   C100      1.0  0.96485  0.97062  0.50956  1.0000
  C   C101      1.0  0.42410  0.47448  0.00441  1.0000
  C   C102      1.0  0.57485  0.53085  0.98683  1.0000
  C   C103      1.0  0.42438  0.53181  0.98922  1.0000
  C   C104      1.0  0.57411  0.47445  0.00968  1.0000
  C   C105      1.0  0.92360  0.97435  0.99854  1.0000
  C   C106      1.0  0.07484  0.02944  0.97744  1.0000
  C   C107      1.0  0.92426  0.03157  0.98297  1.0000
  C   C108      1.0  0.07349  0.97228  0.99329  1.0000
  C   C109      1.0  0.40277  0.44489  0.99948  1.0000
  C   C110      1.0  0.59654  0.55818  0.97346  1.0000
  C   C111      1.0  0.40273  0.55944  0.97799  1.0000
  C   C112      1.0  0.09437  0.94249  0.98515  1.0000
  C   C113      1.0  0.41107  0.41132  0.87884  1.0000
  C   C114      1.0  0.58359  0.58173  0.90580  1.0000
  C   C115      1.0  0.41509  0.58402  0.91609  1.0000
  C   C116      1.0  0.08444  0.90899  0.87085  1.0000
  C   C117      1.0  0.39054  0.38376  0.87149  1.0000
  C   C118      1.0  0.60403  0.60904  0.90989  1.0000
  C   C119      1.0  0.39378  0.61087  0.92166  1.0000
  C   C120      1.0  0.10471  0.88116  0.86141  1.0000
  C   C121      1.0  0.36128  0.38856  0.98551  1.0000
  C   C122      1.0  0.63845  0.61358  0.97991  1.0000
  C   C123      1.0  0.35929  0.61411  0.98798  1.0000
  C   C124      1.0  0.13561  0.88583  0.96519  1.0000
  C   C125      1.0  0.65329  0.58716  0.54039  1.0000
  C   C126      1.0  0.34815  0.58604  0.53187  1.0000
  C   C127      1.0  0.64787  0.41914  0.60517  1.0000
  C   C128      1.0  0.85280  0.91817  0.56789  1.0000
  C   C129      1.0  0.63319  0.55961  0.53437  1.0000
  C   C130      1.0  0.36881  0.55917  0.53139  1.0000
  C   C131      1.0  0.62777  0.44669  0.60957  1.0000
  C   C132      1.0  0.87417  0.94516  0.57697  1.0000
  C   C133      1.0  0.34187  0.35830  0.97479  1.0000
  C   C134      1.0  0.65829  0.64311  0.98500  1.0000
  C   C135      1.0  0.33908  0.64330  0.99242  1.0000
  C   C136      1.0  0.65921  0.36095  0.98352  1.0000
  C   C137      1.0  0.84090  0.85874  0.97137  1.0000
  C   C138      1.0  0.16000  0.14181  0.98789  1.0000
  C   C139      1.0  0.84298  0.14624  0.99653  1.0000
  C   C140      1.0  0.15507  0.85569  0.95497  1.0000
  C   C141      1.0  0.27161  0.27882  0.50873  1.0000
  C   C142      1.0  0.27577  0.72680  0.51827  1.0000
  C   C143      1.0  0.22017  0.23178  0.51615  1.0000
  C   C144      1.0  0.22544  0.77418  0.50538  1.0000
  C   C145      1.0  0.28119  0.24971  0.53928  1.0000
  C   C146      1.0  0.28622  0.75864  0.52088  1.0000
  C   C147      1.0  0.21077  0.26097  0.48604  1.0000
  C   C148      1.0  0.21495  0.74214  0.49904  1.0000
  C   C149      1.0  0.25576  0.22665  0.54477  1.0000
  C   C150      1.0  0.26133  0.78220  0.51614  1.0000
  C   C151      1.0  0.23607  0.28443  0.48349  1.0000
  C   C152      1.0  0.23986  0.71874  0.50549  1.0000
  C   C153      1.0  0.69729  0.70212  0.50816  1.0000
  C   C154      1.0  0.30043  0.30126  0.49281  1.0000
  C   C155      1.0  0.69522  0.29752  0.51024  1.0000
  C   C156      1.0  0.30453  0.70246  0.51595  1.0000
  C   C157      1.0  0.19117  0.20706  0.50588  1.0000
  C   C158      1.0  0.80360  0.79804  0.48618  1.0000
  C   C159      1.0  0.19762  0.79704  0.48355  1.0000
  C   C160      1.0  0.80329  0.20244  0.53311  1.0000
  C   C161      1.0  0.48260  0.50116  0.51885  1.0000
  C   C162      1.0  0.52024  0.50099  0.51675  1.0000
  C   C163      1.0  0.98275  0.99991  0.50539  1.0000
  C   C164      1.0  0.02034  0.00041  0.50446  1.0000
  C   C165      1.0  0.40911  0.50262  0.99206  1.0000
  C   C166      1.0  0.58985  0.50213  0.99573  1.0000
  C   C167      1.0  0.90863  0.00249  0.98543  1.0000
  C   C168      1.0  0.08928  0.00009  0.98155  1.0000
  N   N1        1.0  0.68997  0.64859  0.05293  1.0000
  N   N2        1.0  0.31427  0.36156  0.07567  1.0000
  N   N3        1.0  0.68844  0.36506  0.07444  1.0000
  N   N4        1.0  0.30820  0.64941  0.06728  1.0000
  N   N5        1.0  0.19123  0.14816  0.06059  1.0000
  N   N6        1.0  0.81174  0.86268  0.06191  1.0000
  N   N7        1.0  0.18289  0.85929  0.05603  1.0000
  N   N8        1.0  0.81266  0.15351  0.07684  1.0000
  N   N9        1.0  0.20894  0.17671  0.06730  1.0000
  N   N10       1.0  0.79336  0.83437  0.05544  1.0000
  N   N11       1.0  0.20111  0.83092  0.04810  1.0000
  N   N12       1.0  0.79457  0.18151  0.07871  1.0000
  N   N13       1.0  0.70828  0.67642  0.05431  1.0000
  N   N14       1.0  0.29629  0.33289  0.06590  1.0000
  N   N15       1.0  0.70732  0.33680  0.06327  1.0000
  N   N16       1.0  0.28950  0.67681  0.06560  1.0000
  N   N17       1.0  0.69022  0.64712  0.54918  1.0000
  N   N18       1.0  0.31164  0.36360  0.57023  1.0000
  N   N19       1.0  0.68716  0.35973  0.57573  1.0000
  N   N20       1.0  0.31196  0.64751  0.55691  1.0000
  N   N21       1.0  0.18322  0.15312  0.55771  1.0000
  N   N22       1.0  0.81327  0.85979  0.54598  1.0000
  N   N23       1.0  0.18789  0.86038  0.57753  1.0000
  N   N24       1.0  0.81101  0.14740  0.57542  1.0000
  N   N25       1.0  0.20047  0.18189  0.56588  1.0000
  N   N26       1.0  0.79386  0.83214  0.53924  1.0000
  N   N27       1.0  0.20551  0.83167  0.57008  1.0000
  N   N28       1.0  0.79319  0.17568  0.57920  1.0000
  N   N29       1.0  0.70797  0.67540  0.55317  1.0000
  N   N30       1.0  0.29220  0.33591  0.56317  1.0000
  N   N31       1.0  0.70615  0.33141  0.56362  1.0000
  N   N32       1.0  0.29371  0.67532  0.55761  1.0000
  O   O1        1.0  0.16832  0.20672  0.97413  1.0000
  O   O2        1.0  0.83166  0.78893  0.92269  1.0000
  O   O3        1.0  0.16504  0.78468  0.88601  1.0000
  O   O4        1.0  0.83496  0.21098  0.98107  1.0000
  O   O5        1.0  0.66647  0.70839  0.98171  1.0000
  O   O6        1.0  0.33181  0.28700  0.89771  1.0000
  O   O7        1.0  0.66894  0.29102  0.93046  1.0000
  O   O8        1.0  0.32990  0.70703  0.97308  1.0000
  O   O9        1.0  0.16192  0.20900  0.44268  1.0000
  O   O10       1.0  0.83279  0.78676  0.42518  1.0000
  O   O11       1.0  0.17059  0.78543  0.39377  1.0000
  O   O12       1.0  0.83331  0.20620  0.48683  1.0000
  O   O13       1.0  0.66707  0.70545  0.46139  1.0000
  O   O14       1.0  0.32878  0.28919  0.42071  1.0000
  O   O15       1.0  0.66556  0.28708  0.44954  1.0000
  O   O16       1.0  0.33503  0.70657  0.47658  1.0000
  C  Sn1       1.0  0.13599  0.06895  0.07468  1.0000
  C   C169      1.0  0.10149  0.06181  0.01113  1.0000
  C  Sn2       1.0  0.08762  0.15298  0.90632  1.0000
  C  Sn3       1.0  0.10782  0.17681  0.86405  1.0000
  C   C170      1.0  0.14230  0.18393  0.92756  1.0000
  C  Sn4       1.0  0.15619  0.09278  0.03240  1.0000
  O  Te1       1.0  0.15015  0.05243  0.17922  1.0000
  O  Te2       1.0  0.05308  0.14544  0.84438  1.0000
  O  Te3       1.0  0.09363  0.19333  0.75942  1.0000
  O  Te4       1.0  0.19071  0.10030  0.09430  1.0000
  Mg  Mg1       1.0  0.04547  0.17453  0.70644  1.0000
  Mg  Mg2       1.0  0.19835  0.07122  0.23216  1.0000
  C  Sn5       1.0  0.71816  0.24492  0.62124  1.0000
  C   C171      1.0  0.72335  0.27387  0.58283  1.0000
  C  Sn6       1.0  0.75438  0.27785  0.50116  1.0000
  C  Sn7       1.0  0.78078  0.25236  0.45685  1.0000
  C   C172      1.0  0.77558  0.22343  0.49523  1.0000
  C  Sn8       1.0  0.74455  0.21943  0.57693  1.0000
  O  Te5       1.0  0.68692  0.24146  0.70292  1.0000
  O  Te6       1.0  0.75898  0.30702  0.46414  1.0000
  O  Te7       1.0  0.81202  0.25584  0.37511  1.0000
  O  Te8       1.0  0.73995  0.19028  0.61392  1.0000
  Mg  Mg3       1.0  0.80603  0.30011  0.35153  1.0000
  Mg  Mg4       1.0  0.69290  0.19716  0.72643  1.0000
  C  Sn9       1.0  0.73225  0.22597  0.00652  1.0000
  C   C173      1.0  0.76949  0.30150  0.98879  1.0000
  C  Sn10      1.0  0.78637  0.33115  0.99605  1.0000
  C  Sn11      1.0  0.76562  0.28591  0.02169  1.0000
  C   C174      1.0  0.72924  0.28532  0.03943  1.0000
  C  Sn12      1.0  0.71234  0.25567  0.03215  1.0000
  O  Te9       1.0  0.71676  0.27099  0.99884  1.0000
  O  Te10      1.0  0.82279  0.33111  0.97792  1.0000
  O  Te11      1.0  0.78198  0.31585  0.02934  1.0000
  O  Te12      1.0  0.67594  0.25571  0.05030  1.0000
  Mg  Mg5       1.0  0.83301  0.37809  0.99773  1.0000
  Mg  Mg6       1.0  0.66569  0.20875  0.03060  1.0000
  C  Sn13      1.0  0.08706  0.08107  0.33987  1.0000
  C   C175      1.0  0.09766  0.05580  0.39941  1.0000
  C  Sn14      1.0  0.12730  0.06078  0.51019  1.0000
  C  Sn15      1.0  0.14676  0.09167  0.56266  1.0000
  C   C176      1.0  0.13616  0.11692  0.50316  1.0000
  C  Sn16      1.0  0.10652  0.11196  0.39234  1.0000
  O  Te13      1.0  0.05734  0.07554  0.22921  1.0000
  O  Te14      1.0  0.13746  0.03514  0.56795  1.0000
  O  Te15      1.0  0.17650  0.09718  0.67340  1.0000
  O  Te16      1.0  0.09642  0.13758  0.33462  1.0000
  Mg  Mg7       1.0  0.17975  0.05465  0.71724  1.0000
  Mg  Mg8       1.0  0.05407  0.11810  0.18541  1.0000
  C  Sn17      1.0  0.28639  0.30969  0.98618  1.0000
  C   C177      1.0  0.27993  0.33977  0.96018  1.0000
  C  Sn18      1.0  0.24617  0.35350  0.98197  1.0000
  C  Sn19      1.0  0.21745  0.26189  0.03087  1.0000
  C   C178      1.0  0.22391  0.23184  0.05687  1.0000
  C  Sn20      1.0  0.25767  0.21808  0.03508  1.0000
  O  Te17      1.0  0.32036  0.29642  0.96369  1.0000
  O  Te18      1.0  0.24035  0.38359  0.95518  1.0000
  O  Te19      1.0  0.18346  0.27519  0.05335  1.0000
  O  Te20      1.0  0.26350  0.18802  0.06187  1.0000
  Mg  Mg9       1.0  0.18869  0.31675  0.00190  1.0000
  Mg  Mg10      1.0  0.31431  0.17989  0.01528  1.0000
  C  Sn21      1.0  0.40330  0.40217  0.32715  1.0000
  C   C179      1.0  0.39981  0.43698  0.43836  1.0000
  C  Sn22      1.0  0.37830  0.44756  0.59187  1.0000
  C  Sn23      1.0  0.35992  0.42283  0.63523  1.0000
  C   C180      1.0  0.36342  0.38805  0.52408  1.0000
  C  Sn24      1.0  0.38492  0.37745  0.37051  1.0000
  O  Te21      1.0  0.42495  0.39218  0.17436  1.0000
  O  Te22      1.0  0.37522  0.48250  0.70095  1.0000
  O  Te23      1.0  0.33826  0.43285  0.78816  1.0000
  O  Te24      1.0  0.38801  0.34253  0.26149  1.0000
  Mg  Mg11      1.0  0.34258  0.48340  0.89463  1.0000
  Mg  Mg12      1.0  0.42066  0.34159  0.06784  1.0000
  C  Sn25      1.0  0.58417  0.40342  0.92402  1.0000
  C   C181      1.0  0.58902  0.36356  0.02107  1.0000
  C  Sn26      1.0  0.62192  0.37569  0.09661  1.0000
  C  Sn27      1.0  0.64973  0.35227  0.07460  1.0000
  C   C182      1.0  0.64489  0.39216  0.97757  1.0000
  C  Sn28      1.0  0.61199  0.38000  0.90200  1.0000
  O  Te25      1.0  0.55107  0.39187  0.84966  1.0000
  O  Te26      1.0  0.62695  0.41089  0.19313  1.0000
  O  Te27      1.0  0.68285  0.36386  0.14907  1.0000
  O  Te28      1.0  0.60696  0.34483  0.80552  1.0000
  Mg  Mg13      1.0  0.67676  0.41415  0.26891  1.0000
  Mg  Mg14      1.0  0.55717  0.34155  0.72960  1.0000
  C  Sn29      1.0  0.85912  0.13753  0.98562  1.0000
  C   C183      1.0  0.89399  0.13042  0.93051  1.0000
  C  Sn30      1.0  0.91520  0.15567  0.91272  1.0000
  C  Sn31      1.0  0.90127  0.18872  0.95091  1.0000
  C   C184      1.0  0.86560  0.12086  0.00601  1.0000
  C  Sn32      1.0  0.84437  0.09563  0.02381  1.0000
  O  Te29      1.0  0.83756  0.03695  0.00250  1.0000
  O  Te30      1.0  0.94998  0.14795  0.85736  1.0000
  O  Te31      1.0  0.92204  0.21435  0.93398  1.0000
  O  Te32      1.0  0.80961  0.10334  0.07916  1.0000
  Mg  Mg15      1.0  0.96780  0.19143  0.85437  1.0000
  Mg  Mg16      1.0  0.79177  0.05989  0.08229  1.0000
  C  Sn33      1.0  0.91742  0.09114  0.46406  1.0000
  C   C185      1.0  0.90827  0.06383  0.51028  1.0000
  C  Sn34      1.0  0.87315  0.05757  0.53566  1.0000
  C  Sn35      1.0  0.84662  0.07905  0.51428  1.0000
  C   C186      1.0  0.85578  0.10634  0.46806  1.0000
  C  Sn36      1.0  0.89090  0.11263  0.44269  1.0000
  O  Te33      1.0  0.95270  0.09692  0.43935  1.0000
  O  Te34      1.0  0.86472  0.03011  0.58188  1.0000
  O  Te35      1.0  0.81133  0.07325  0.53905  1.0000
  O  Te36      1.0  0.89941  0.14006  0.39646  1.0000
  Mg  Mg17      1.0  0.81297  0.03264  0.60102  1.0000
  Mg  Mg18      1.0  0.95114  0.13754  0.37720  1.0000
  C  Sn37      1.0  0.08733  0.90028  0.39969  1.0000
  C   C187      1.0  0.09196  0.93513  0.50748  1.0000
  C  Sn38      1.0  0.12371  0.94712  0.59818  1.0000
  C  Sn39      1.0  0.15142  0.92380  0.58070  1.0000
  C   C188      1.0  0.14678  0.88897  0.47294  1.0000
  C  Sn40      1.0  0.11503  0.87695  0.38221  1.0000
  O  Te37      1.0  0.05536  0.88886  0.31024  1.0000
  O  Te38      1.0  0.12772  0.98207  0.70522  1.0000
  O  Te39      1.0  0.18340  0.93525  0.67027  1.0000
  O  Te40      1.0  0.11102  0.84202  0.27521  1.0000
  Mg  Mg19      1.0  0.17618  0.98522  0.80023  1.0000
  Mg  Mg20      1.0  0.06258  0.83885  0.18006  1.0000
  C  Sn41      1.0  0.71937  0.75700  0.42865  1.0000
  C   C189      1.0  0.72558  0.72787  0.46416  1.0000
  C  Sn42      1.0  0.75745  0.72389  0.54006  1.0000
  C  Sn43      1.0  0.78366  0.74957  0.58143  1.0000
  C   C190      1.0  0.77745  0.77868  0.54596  1.0000
  C  Sn44      1.0  0.74558  0.78268  0.47003  1.0000
  O  Te41      1.0  0.68732  0.76045  0.35274  1.0000
  O  Te42      1.0  0.76305  0.69454  0.57427  1.0000
  O  Te43      1.0  0.81573  0.74610  0.65740  1.0000
  O  Te44      1.0  0.73997  0.81201  0.43585  1.0000
  Mg  Mg21      1.0  0.81096  0.70155  0.67902  1.0000
  Mg  Mg22      1.0  0.69206  0.80504  0.33120  1.0000
  C  Sn45      1.0  0.87333  0.94450  0.15334  1.0000
  C   C191      1.0  0.90197  0.94419  0.04433  1.0000
  C  Sn46      1.0  0.90954  0.99043  0.88447  1.0000
  C  Sn47      1.0  0.88716  0.96143  0.83240  1.0000
  C   C192      1.0  0.85853  0.96175  0.94136  1.0000
  C  Sn48      1.0  0.85095  0.91550  0.10127  1.0000
  O  Te45      1.0  0.86709  0.97348  0.31258  1.0000
  O  Te46      1.0  0.93835  0.99072  0.77774  1.0000
  O  Te47      1.0  0.89343  0.93244  0.67301  1.0000
  O  Te48      1.0  0.82216  0.91522  0.20795  1.0000
  Mg  Mg23      1.0  0.93595  0.94514  0.57295  1.0000
  Mg  Mg24      1.0  0.82453  0.96079  0.41270  1.0000
