data_image0
_chemical_formula_structural       H28C48N16O8C2Sn2C2HTe2HMgC2Sn2C2HTe2HMgC2Sn2C2HTe2HMgC2Sn2C2HTe2HMgC2Sn2C2HTe2HMgC2Sn2C2HTe2HMgC2Sn2C2HTe2HMgC2Sn2C2HTe2HMgC2Sn2C2HTe2HMgC2Sn2C2HTe2HMgC2Sn2C2HTe2HMgC2Sn2C2HTe2HMg
_chemical_formula_sum              "H52 C96 N16 O8 Sn24 Te24 Mg12"
_cell_length_a       24.8605
_cell_length_b       23.7296
_cell_length_c       9.19051
_cell_angle_alpha    89.1064
_cell_angle_beta     93.207
_cell_angle_gamma    97.9569

_symmetry_space_group_name_H-M    'P1'
_space_group_IT_number       1

loop_
  _space_group_symop_operation_xyz
  'x, y, z'

loop_
  _atom_site_type_symbol
  _atom_site_label
  _atom_site_symmetry_multiplicity
  _atom_site_fract_x
  _atom_site_fract_y
  _atom_site_fract_z
  _atom_site_occupancy
  H   H1        1.0  0.83077  0.67183  0.09291  1.0000
  H   H2        1.0  0.16683  0.33220  0.41330  1.0000
  H   H3        1.0  0.90397  0.56808  0.40601  1.0000
  H   H4        1.0  0.09425  0.43427  0.09754  1.0000
  H   H5        1.0  0.70535  0.23522  0.20580  1.0000
  H   H6        1.0  0.29732  0.76838  0.32046  1.0000
  H   H7        1.0  0.59636  0.09291  0.07005  1.0000
  H   H8        1.0  0.41393  0.90404  0.43092  1.0000
  H   H9        1.0  0.56290  0.69128  0.26446  1.0000
  H   H10       1.0  0.43402  0.30728  0.22635  1.0000
  H   H11       1.0  0.39568  0.57591  0.37508  1.0000
  H   H12       1.0  0.60523  0.42125  0.14481  1.0000
  H   H13       1.0  0.36048  0.47485  0.35715  1.0000
  H   H14       1.0  0.63950  0.52247  0.15531  1.0000
  H   H15       1.0  0.83094  0.66976  0.58999  1.0000
  H   H16       1.0  0.16939  0.33651  0.90858  1.0000
  H   H17       1.0  0.90837  0.57445  0.91181  1.0000
  H   H18       1.0  0.09299  0.43503  0.59172  1.0000
  H   H19       1.0  0.70298  0.23152  0.68175  1.0000
  H   H20       1.0  0.29587  0.76693  0.82383  1.0000
  H   H21       1.0  0.58539  0.09724  0.55695  1.0000
  H   H22       1.0  0.41453  0.90067  0.92918  1.0000
  H   H23       1.0  0.56341  0.69254  0.75463  1.0000
  H   H24       1.0  0.43660  0.30765  0.73723  1.0000
  H   H25       1.0  0.39380  0.57771  0.85076  1.0000
  H   H26       1.0  0.60809  0.42206  0.65333  1.0000
  H   H27       1.0  0.36035  0.47615  0.84196  1.0000
  H   H28       1.0  0.64106  0.52356  0.65877  1.0000
  C   C1        1.0  0.81560  0.64788  0.18909  1.0000
  C   C2        1.0  0.18256  0.35582  0.31729  1.0000
  C   C3        1.0  0.66368  0.21387  0.21646  1.0000
  C   C4        1.0  0.33892  0.78827  0.30146  1.0000
  C   C5        1.0  0.49295  0.62790  0.28116  1.0000
  C   C6        1.0  0.50536  0.36988  0.22399  1.0000
  C   C7        1.0  0.47397  0.56860  0.28914  1.0000
  C   C8        1.0  0.52528  0.42909  0.22028  1.0000
  C   C9        1.0  0.54838  0.64580  0.26386  1.0000
  C   C10       1.0  0.44935  0.35249  0.23352  1.0000
  C   C11       1.0  0.50968  0.52870  0.25714  1.0000
  C   C12       1.0  0.48952  0.46914  0.25021  1.0000
  C   C13       1.0  0.42072  0.54663  0.33256  1.0000
  C   C14       1.0  0.57931  0.45080  0.18173  1.0000
  C   C15       1.0  0.58541  0.60739  0.24664  1.0000
  C   C16       1.0  0.41277  0.39119  0.25346  1.0000
  C   C17       1.0  0.56549  0.54829  0.23279  1.0000
  C   C18       1.0  0.43356  0.44975  0.27316  1.0000
  C   C19       1.0  0.40122  0.49001  0.32381  1.0000
  C   C20       1.0  0.59850  0.50762  0.18750  1.0000
  C   C21       1.0  0.89492  0.60589  0.20935  1.0000
  C   C22       1.0  0.10451  0.39999  0.29829  1.0000
  C   C23       1.0  0.60987  0.12729  0.27415  1.0000
  C   C24       1.0  0.39255  0.87331  0.22595  1.0000
  C   C25       1.0  0.81569  0.64757  0.68845  1.0000
  C   C26       1.0  0.18482  0.35910  0.81073  1.0000
  C   C27       1.0  0.66208  0.20954  0.70048  1.0000
  C   C28       1.0  0.33686  0.78756  0.80088  1.0000
  C   C29       1.0  0.49294  0.62928  0.76840  1.0000
  C   C30       1.0  0.50790  0.37020  0.73016  1.0000
  C   C31       1.0  0.47400  0.56992  0.77695  1.0000
  C   C32       1.0  0.52739  0.42962  0.72394  1.0000
  C   C33       1.0  0.54857  0.64716  0.75433  1.0000
  C   C34       1.0  0.45187  0.35292  0.74031  1.0000
  C   C35       1.0  0.51041  0.52975  0.75183  1.0000
  C   C36       1.0  0.49101  0.46991  0.74870  1.0000
  C   C37       1.0  0.42010  0.54819  0.81574  1.0000
  C   C38       1.0  0.58147  0.45157  0.68666  1.0000
  C   C39       1.0  0.58582  0.60869  0.74101  1.0000
  C   C40       1.0  0.41488  0.39166  0.75406  1.0000
  C   C41       1.0  0.56631  0.54946  0.72980  1.0000
  C   C42       1.0  0.43492  0.45059  0.76908  1.0000
  C   C43       1.0  0.40143  0.49129  0.81132  1.0000
  C   C44       1.0  0.59997  0.50858  0.68968  1.0000
  C   C45       1.0  0.89352  0.60390  0.70772  1.0000
  C   C46       1.0  0.10728  0.40362  0.79373  1.0000
  C   C47       1.0  0.61232  0.12095  0.76488  1.0000
  C   C48       1.0  0.38901  0.87264  0.72399  1.0000
  N   N1        1.0  0.91905  0.57054  0.30406  1.0000
  N   N2        1.0  0.07923  0.43275  0.19961  1.0000
  N   N3        1.0  0.58660  0.08713  0.17769  1.0000
  N   N4        1.0  0.42073  0.91125  0.32153  1.0000
  N   N5        1.0  0.84509  0.61627  0.26584  1.0000
  N   N6        1.0  0.15377  0.38835  0.24157  1.0000
  N   N7        1.0  0.65818  0.15961  0.23019  1.0000
  N   N8        1.0  0.34530  0.84205  0.27872  1.0000
  N   N9        1.0  0.92094  0.57348  0.80748  1.0000
  N   N10       1.0  0.08051  0.43554  0.69630  1.0000
  N   N11       1.0  0.58234  0.08583  0.66604  1.0000
  N   N12       1.0  0.41897  0.90918  0.81931  1.0000
  N   N13       1.0  0.84510  0.61654  0.76735  1.0000
  N   N14       1.0  0.15585  0.39118  0.73386  1.0000
  N   N15       1.0  0.65776  0.15531  0.71172  1.0000
  N   N16       1.0  0.34219  0.84140  0.77955  1.0000
  O   O1        1.0  0.91178  0.62169  0.08873  1.0000
  O   O2        1.0  0.08887  0.38707  0.42199  1.0000
  O   O3        1.0  0.59440  0.13319  0.39922  1.0000
  O   O4        1.0  0.40289  0.86902  0.09577  1.0000
  O   O5        1.0  0.90654  0.61389  0.58045  1.0000
  O   O6        1.0  0.09359  0.39190  0.91975  1.0000
  O   O7        1.0  0.60516  0.12035  0.89790  1.0000
  O   O8        1.0  0.39735  0.86935  0.59222  1.0000
  C   C49       1.0  0.01332  0.55195  0.15966  1.0000
  C   C50       1.0  0.96801  0.54197  0.24458  1.0000
  C  Sn1       1.0  0.95891  0.49224  0.32822  1.0000
  C  Sn2       1.0  0.99594  0.45184  0.32663  1.0000
  C   C51       1.0  0.04117  0.46224  0.24140  1.0000
  C   C52       1.0  0.04988  0.51213  0.15808  1.0000
  H   H29       1.0  0.02008  0.59057  0.09526  1.0000
  O  Te1       1.0  0.91342  0.48293  0.41241  1.0000
  O  Te2       1.0  0.98782  0.40179  0.40924  1.0000
  H   H30       1.0  0.08498  0.51986  0.09241  1.0000
  Mg  Mg1       1.0  0.91988  0.40831  0.50643  1.0000
  C   C53       1.0  0.52690  0.96838  0.36898  1.0000
  C   C54       1.0  0.47360  0.95691  0.30941  1.0000
  C  Sn3       1.0  0.45643  0.98872  0.19078  1.0000
  C  Sn4       1.0  0.36126  0.03278  0.13090  1.0000
  C   C55       1.0  0.41450  0.04389  0.19122  1.0000
  C   C56       1.0  0.43125  0.01182  0.30995  1.0000
  H   H31       1.0  0.53987  0.94355  0.46080  1.0000
  O  Te3       1.0  0.40303  0.97671  0.13262  1.0000
  O  Te4       1.0  0.34517  0.06521  0.01231  1.0000
  H   H32       1.0  0.47253  0.02068  0.35600  1.0000
  Mg  Mg2       1.0  0.28846  0.02958  0.97114  1.0000
  C   C57       1.0  0.44436  0.75525  0.38740  1.0000
  C   C58       1.0  0.39444  0.75559  0.30977  1.0000
  C  Sn5       1.0  0.37299  0.70979  0.22084  1.0000
  C  Sn6       1.0  0.40215  0.66283  0.20968  1.0000
  C   C59       1.0  0.45204  0.66288  0.28787  1.0000
  C   C60       1.0  0.47313  0.70894  0.37650  1.0000
  H   H33       1.0  0.46067  0.79087  0.45604  1.0000
  O  Te5       1.0  0.32307  0.71082  0.14399  1.0000
  O  Te6       1.0  0.38164  0.61649  0.12164  1.0000
  H   H34       1.0  0.51177  0.70865  0.43667  1.0000
  Mg  Mg3       1.0  0.31198  0.63768  0.03823  1.0000
  C   C61       1.0  0.53835  0.26585  0.11903  1.0000
  C   C62       1.0  0.53900  0.31437  0.20367  1.0000
  C  Sn7       1.0  0.58398  0.33280  0.29740  1.0000
  C  Sn8       1.0  0.62908  0.30200  0.30628  1.0000
  C   C63       1.0  0.62805  0.25353  0.22107  1.0000
  C   C64       1.0  0.58283  0.23545  0.12768  1.0000
  H   H35       1.0  0.50338  0.25187  0.04671  1.0000
  O  Te7       1.0  0.58395  0.38136  0.38124  1.0000
  O  Te8       1.0  0.67457  0.31949  0.39901  1.0000
  H   H36       1.0  0.58236  0.19790  0.06208  1.0000
  Mg  Mg4       1.0  0.65532  0.38829  0.49140  1.0000
  C   C65       1.0  0.71034  0.68282  0.12684  1.0000
  C   C66       1.0  0.75136  0.65981  0.20820  1.0000
  C  Sn9       1.0  0.73804  0.61748  0.31256  1.0000
  C  Sn10      1.0  0.68260  0.59790  0.33563  1.0000
  C   C67       1.0  0.64187  0.62116  0.25361  1.0000
  C   C68       1.0  0.65565  0.66351  0.14949  1.0000
  H   H37       1.0  0.72100  0.71556  0.04622  1.0000
  O  Te9       1.0  0.77953  0.59497  0.39293  1.0000
  O  Te10      1.0  0.66814  0.55562  0.43920  1.0000
  H   H38       1.0  0.62388  0.68129  0.08645  1.0000
  Mg  Mg5       1.0  0.73933  0.53815  0.52157  1.0000
  C   C69       1.0  0.31785  0.32364  0.36974  1.0000
  C   C70       1.0  0.34779  0.35828  0.27003  1.0000
  C  Sn11      1.0  0.32195  0.39360  0.17432  1.0000
  C  Sn12      1.0  0.26507  0.39417  0.17879  1.0000
  C   C71       1.0  0.23548  0.35938  0.27901  1.0000
  C   C72       1.0  0.26175  0.32419  0.37425  1.0000
  H   H39       1.0  0.33817  0.29643  0.44349  1.0000
  O  Te11      1.0  0.35247  0.42793  0.07536  1.0000
  O  Te12      1.0  0.23821  0.42908  0.08441  1.0000
  H   H40       1.0  0.23856  0.29740  0.45150  1.0000
  Mg  Mg6       1.0  0.31771  0.46509  0.96899  1.0000
  C   C73       1.0  0.98998  0.45643  0.85371  1.0000
  C   C74       1.0  0.02861  0.46161  0.74779  1.0000
  C  Sn13      1.0  0.03494  0.50957  0.65699  1.0000
  C  Sn14      1.0  0.00195  0.55310  0.67281  1.0000
  C   C75       1.0  0.96345  0.54753  0.77917  1.0000
  C   C76       1.0  0.95744  0.49935  0.86942  1.0000
  H   H41       1.0  0.98535  0.41917  0.92360  1.0000
  O  Te13      1.0  0.07371  0.51406  0.55170  1.0000
  O  Te14      1.0  0.00744  0.60149  0.58354  1.0000
  H   H42       1.0  0.92755  0.49537  0.95148  1.0000
  Mg  Mg7       1.0  0.06595  0.58809  0.45603  1.0000
  C   C77       1.0  0.47545  0.02966  0.62753  1.0000
  C   C78       1.0  0.52802  0.04331  0.69057  1.0000
  C  Sn15      1.0  0.54780  0.00813  0.79828  1.0000
  C  Sn16      1.0  0.64637  0.95838  0.84346  1.0000
  C   C79       1.0  0.59384  0.94508  0.77964  1.0000
  C   C80       1.0  0.57445  0.98059  0.67199  1.0000
  H   H43       1.0  0.46045  0.05711  0.54418  1.0000
  O  Te15      1.0  0.60042  0.02241  0.86017  1.0000
  O  Te16      1.0  0.66512  0.92246  0.95085  1.0000
  H   H44       1.0  0.53376  0.96999  0.62313  1.0000
  Mg  Mg8       1.0  0.71948  0.96313  0.00260  1.0000
  C   C81       1.0  0.46332  0.73411  0.87648  1.0000
  C   C82       1.0  0.45755  0.68208  0.80414  1.0000
  C  Sn17      1.0  0.41108  0.66478  0.71470  1.0000
  C  Sn18      1.0  0.36969  0.70033  0.69754  1.0000
  C   C83       1.0  0.37587  0.75232  0.77029  1.0000
  C   C84       1.0  0.42253  0.76921  0.85957  1.0000
  H   H45       1.0  0.49944  0.74720  0.94549  1.0000
  O  Te17      1.0  0.40596  0.61265  0.64327  1.0000
  O  Te18      1.0  0.32284  0.68409  0.60877  1.0000
  H   H46       1.0  0.42700  0.80952  0.91548  1.0000
  Mg  Mg9       1.0  0.33459  0.60916  0.53418  1.0000
  C   C85       1.0  0.53587  0.26361  0.62765  1.0000
  C   C86       1.0  0.53989  0.31306  0.71047  1.0000
  C  Sn19      1.0  0.58725  0.33107  0.79581  1.0000
  C  Sn20      1.0  0.63134  0.29891  0.79803  1.0000
  C   C87       1.0  0.62694  0.24952  0.71471  1.0000
  C   C88       1.0  0.57935  0.23187  0.62973  1.0000
  H   H47       1.0  0.49907  0.24996  0.56184  1.0000
  O  Te19      1.0  0.59058  0.38056  0.87793  1.0000
  O  Te20      1.0  0.67916  0.31596  0.88231  1.0000
  H   H48       1.0  0.57627  0.19361  0.56555  1.0000
  Mg  Mg10      1.0  0.66419  0.38641  0.97558  1.0000
  C   C89       1.0  0.69324  0.59461  0.84363  1.0000
  C   C90       1.0  0.65322  0.62322  0.77492  1.0000
  C  Sn21      1.0  0.66713  0.66526  0.67023  1.0000
  C  Sn22      1.0  0.72217  0.67879  0.63386  1.0000
  C   C91       1.0  0.76190  0.64990  0.70314  1.0000
  C   C92       1.0  0.74753  0.60793  0.80777  1.0000
  H   H49       1.0  0.68212  0.56211  0.92453  1.0000
  O  Te21      1.0  0.62664  0.69344  0.60268  1.0000
  O  Te22      1.0  0.73720  0.72061  0.52958  1.0000
  H   H50       1.0  0.77852  0.58576  0.86088  1.0000
  Mg  Mg11      1.0  0.66732  0.74717  0.46763  1.0000
  C   C93       1.0  0.28805  0.31826  0.86775  1.0000
  C   C94       1.0  0.24875  0.34817  0.80030  1.0000
  C  Sn23      1.0  0.26342  0.39019  0.69616  1.0000
  C  Sn24      1.0  0.31848  0.40240  0.65906  1.0000
  C   C95       1.0  0.35748  0.37221  0.72709  1.0000
  C   C96       1.0  0.34236  0.33026  0.83118  1.0000
  H   H51       1.0  0.27636  0.28578  0.94823  1.0000
  O  Te23      1.0  0.22364  0.41968  0.62987  1.0000
  O  Te24      1.0  0.33425  0.44417  0.55532  1.0000
  H   H52       1.0  0.37279  0.30708  0.88331  1.0000
  Mg  Mg12      1.0  0.26518  0.47280  0.49511  1.0000
