data_image0
_chemical_formula_structural       H28C48N16O8SnCSn2CSnTe4Mg2SnCSn2CSnTe4Mg2SnCSn2CSnTe4Mg2SnCSn2CSnTe4Mg2SnCSn2CSnTe4Mg2SnCSn2CSnTe4Mg2SnCSn2CSnTe4Mg2SnCSn2CSnTe4Mg2SnCSn2CSnTe4Mg2SnCSn2CSnTe4Mg2SnCSn2CSnTe4Mg2SnCSn2CSnTe4Mg2
_chemical_formula_sum              "H28 C72 N16 O8 Sn48 Te48 Mg24"
_cell_length_a       24.8605
_cell_length_b       23.7296
_cell_length_c       9.19051
_cell_angle_alpha    89.1064
_cell_angle_beta     93.207
_cell_angle_gamma    97.9569

_symmetry_space_group_name_H-M    'P1'
_space_group_IT_number       1

loop_
  _space_group_symop_operation_xyz
  'x, y, z'

loop_
  _atom_site_type_symbol
  _atom_site_label
  _atom_site_symmetry_multiplicity
  _atom_site_fract_x
  _atom_site_fract_y
  _atom_site_fract_z
  _atom_site_occupancy
  H   H1        1.0  0.83077  0.67183  0.09291  1.0000
  H   H2        1.0  0.16683  0.33220  0.41330  1.0000
  H   H3        1.0  0.90397  0.56808  0.40601  1.0000
  H   H4        1.0  0.09425  0.43427  0.09754  1.0000
  H   H5        1.0  0.70535  0.23522  0.20580  1.0000
  H   H6        1.0  0.29732  0.76838  0.32046  1.0000
  H   H7        1.0  0.59636  0.09291  0.07005  1.0000
  H   H8        1.0  0.41393  0.90404  0.43092  1.0000
  H   H9        1.0  0.56290  0.69128  0.26446  1.0000
  H   H10       1.0  0.43402  0.30728  0.22635  1.0000
  H   H11       1.0  0.39568  0.57591  0.37508  1.0000
  H   H12       1.0  0.60523  0.42125  0.14481  1.0000
  H   H13       1.0  0.36048  0.47485  0.35715  1.0000
  H   H14       1.0  0.63950  0.52247  0.15531  1.0000
  H   H15       1.0  0.83094  0.66976  0.58999  1.0000
  H   H16       1.0  0.16939  0.33651  0.90858  1.0000
  H   H17       1.0  0.90837  0.57445  0.91181  1.0000
  H   H18       1.0  0.09299  0.43503  0.59172  1.0000
  H   H19       1.0  0.70298  0.23152  0.68175  1.0000
  H   H20       1.0  0.29587  0.76693  0.82383  1.0000
  H   H21       1.0  0.58539  0.09724  0.55695  1.0000
  H   H22       1.0  0.41453  0.90067  0.92918  1.0000
  H   H23       1.0  0.56341  0.69254  0.75463  1.0000
  H   H24       1.0  0.43660  0.30765  0.73723  1.0000
  H   H25       1.0  0.39380  0.57771  0.85076  1.0000
  H   H26       1.0  0.60809  0.42206  0.65333  1.0000
  H   H27       1.0  0.36035  0.47615  0.84196  1.0000
  H   H28       1.0  0.64106  0.52356  0.65877  1.0000
  C   C1        1.0  0.81560  0.64788  0.18909  1.0000
  C   C2        1.0  0.18256  0.35582  0.31729  1.0000
  C   C3        1.0  0.66368  0.21387  0.21646  1.0000
  C   C4        1.0  0.33892  0.78827  0.30146  1.0000
  C   C5        1.0  0.49295  0.62790  0.28116  1.0000
  C   C6        1.0  0.50536  0.36988  0.22399  1.0000
  C   C7        1.0  0.47397  0.56860  0.28914  1.0000
  C   C8        1.0  0.52528  0.42909  0.22028  1.0000
  C   C9        1.0  0.54838  0.64580  0.26386  1.0000
  C   C10       1.0  0.44935  0.35249  0.23352  1.0000
  C   C11       1.0  0.50968  0.52870  0.25714  1.0000
  C   C12       1.0  0.48952  0.46914  0.25021  1.0000
  C   C13       1.0  0.42072  0.54663  0.33256  1.0000
  C   C14       1.0  0.57931  0.45080  0.18173  1.0000
  C   C15       1.0  0.58541  0.60739  0.24664  1.0000
  C   C16       1.0  0.41277  0.39119  0.25346  1.0000
  C   C17       1.0  0.56549  0.54829  0.23279  1.0000
  C   C18       1.0  0.43356  0.44975  0.27316  1.0000
  C   C19       1.0  0.40122  0.49001  0.32381  1.0000
  C   C20       1.0  0.59850  0.50762  0.18750  1.0000
  C   C21       1.0  0.89492  0.60589  0.20935  1.0000
  C   C22       1.0  0.10451  0.39999  0.29829  1.0000
  C   C23       1.0  0.60987  0.12729  0.27415  1.0000
  C   C24       1.0  0.39255  0.87331  0.22595  1.0000
  C   C25       1.0  0.81569  0.64757  0.68845  1.0000
  C   C26       1.0  0.18482  0.35910  0.81073  1.0000
  C   C27       1.0  0.66208  0.20954  0.70048  1.0000
  C   C28       1.0  0.33686  0.78756  0.80088  1.0000
  C   C29       1.0  0.49294  0.62928  0.76840  1.0000
  C   C30       1.0  0.50790  0.37020  0.73016  1.0000
  C   C31       1.0  0.47400  0.56992  0.77695  1.0000
  C   C32       1.0  0.52739  0.42962  0.72394  1.0000
  C   C33       1.0  0.54857  0.64716  0.75433  1.0000
  C   C34       1.0  0.45187  0.35292  0.74031  1.0000
  C   C35       1.0  0.51041  0.52975  0.75183  1.0000
  C   C36       1.0  0.49101  0.46991  0.74870  1.0000
  C   C37       1.0  0.42010  0.54819  0.81574  1.0000
  C   C38       1.0  0.58147  0.45157  0.68666  1.0000
  C   C39       1.0  0.58582  0.60869  0.74101  1.0000
  C   C40       1.0  0.41488  0.39166  0.75406  1.0000
  C   C41       1.0  0.56631  0.54946  0.72980  1.0000
  C   C42       1.0  0.43492  0.45059  0.76908  1.0000
  C   C43       1.0  0.40143  0.49129  0.81132  1.0000
  C   C44       1.0  0.59997  0.50858  0.68968  1.0000
  C   C45       1.0  0.89352  0.60390  0.70772  1.0000
  C   C46       1.0  0.10728  0.40362  0.79373  1.0000
  C   C47       1.0  0.61232  0.12095  0.76488  1.0000
  C   C48       1.0  0.38901  0.87264  0.72399  1.0000
  N   N1        1.0  0.91905  0.57054  0.30406  1.0000
  N   N2        1.0  0.07923  0.43275  0.19961  1.0000
  N   N3        1.0  0.58660  0.08713  0.17769  1.0000
  N   N4        1.0  0.42073  0.91125  0.32153  1.0000
  N   N5        1.0  0.84509  0.61627  0.26584  1.0000
  N   N6        1.0  0.15377  0.38835  0.24157  1.0000
  N   N7        1.0  0.65818  0.15961  0.23019  1.0000
  N   N8        1.0  0.34530  0.84205  0.27872  1.0000
  N   N9        1.0  0.92094  0.57348  0.80748  1.0000
  N   N10       1.0  0.08051  0.43554  0.69630  1.0000
  N   N11       1.0  0.58234  0.08583  0.66604  1.0000
  N   N12       1.0  0.41897  0.90918  0.81931  1.0000
  N   N13       1.0  0.84510  0.61654  0.76735  1.0000
  N   N14       1.0  0.15585  0.39118  0.73386  1.0000
  N   N15       1.0  0.65776  0.15531  0.71172  1.0000
  N   N16       1.0  0.34219  0.84140  0.77955  1.0000
  O   O1        1.0  0.91178  0.62169  0.08873  1.0000
  O   O2        1.0  0.08887  0.38707  0.42199  1.0000
  O   O3        1.0  0.59440  0.13319  0.39922  1.0000
  O   O4        1.0  0.40289  0.86902  0.09577  1.0000
  O   O5        1.0  0.90654  0.61389  0.58045  1.0000
  O   O6        1.0  0.09359  0.39190  0.91975  1.0000
  O   O7        1.0  0.60516  0.12035  0.89790  1.0000
  O   O8        1.0  0.39735  0.86935  0.59222  1.0000
  C  Sn1       1.0  0.00024  0.54140  0.13172  1.0000
  C   C49       1.0  0.95852  0.53302  0.22885  1.0000
  C  Sn2       1.0  0.95882  0.49161  0.33850  1.0000
  C  Sn3       1.0  0.00174  0.45790  0.35141  1.0000
  C   C50       1.0  0.04343  0.46630  0.25434  1.0000
  C  Sn4       1.0  0.04315  0.50769  0.14463  1.0000
  O  Te1       1.0  0.99911  0.58304  0.02294  1.0000
  O  Te2       1.0  0.91666  0.48401  0.43429  1.0000
  O  Te3       1.0  0.00284  0.41624  0.46030  1.0000
  O  Te4       1.0  0.08529  0.51531  0.04890  1.0000
  Mg  Mg1       1.0  0.93627  0.42192  0.56453  1.0000
  Mg  Mg2       1.0  0.08601  0.57430  0.91868  1.0000
  C  Sn5       1.0  0.46662  0.99150  0.12188  1.0000
  C   C51       1.0  0.46727  0.95188  0.23584  1.0000
  C  Sn6       1.0  0.50657  0.96051  0.35095  1.0000
  C  Sn7       1.0  0.41389  0.00979  0.35224  1.0000
  C   C52       1.0  0.41323  0.04939  0.23834  1.0000
  C  Sn8       1.0  0.37395  0.04079  0.12317  1.0000
  O  Te5       1.0  0.42696  0.98201  0.00792  1.0000
  O  Te6       1.0  0.50641  0.92028  0.46363  1.0000
  O  Te7       1.0  0.45358  0.01926  0.46633  1.0000
  O  Te8       1.0  0.37409  0.08099  0.01055  1.0000
  Mg  Mg3       1.0  0.56868  0.95219  0.59485  1.0000
  Mg  Mg4       1.0  0.33209  0.04603  0.87933  1.0000
  C  Sn9       1.0  0.36536  0.67882  0.24844  1.0000
  C   C53       1.0  0.37139  0.73006  0.32447  1.0000
  C  Sn10      1.0  0.42295  0.75584  0.37407  1.0000
  C  Sn11      1.0  0.46946  0.72991  0.34703  1.0000
  C   C54       1.0  0.46342  0.67871  0.27102  1.0000
  C  Sn12      1.0  0.41188  0.65289  0.22140  1.0000
  O  Te9       1.0  0.31343  0.65380  0.19986  1.0000
  O  Te10      1.0  0.42795  0.80705  0.44989  1.0000
  O  Te11      1.0  0.52142  0.75498  0.39569  1.0000
  O  Te12      1.0  0.40686  0.60172  0.14560  1.0000
  Mg  Mg5       1.0  0.50732  0.82468  0.49398  1.0000
  Mg  Mg6       1.0  0.32752  0.58406  0.10139  1.0000
  C  Sn13      1.0  0.60985  0.34097  0.28147  1.0000
  C   C55       1.0  0.55813  0.33574  0.21099  1.0000
  C  Sn14      1.0  0.53503  0.28416  0.14821  1.0000
  C  Sn15      1.0  0.56421  0.23680  0.15610  1.0000
  C   C56       1.0  0.61589  0.24204  0.22657  1.0000
  C  Sn16      1.0  0.63903  0.29361  0.28936  1.0000
  O  Te13      1.0  0.63215  0.39294  0.34347  1.0000
  O  Te14      1.0  0.48328  0.27997  0.07828  1.0000
  O  Te15      1.0  0.54186  0.18481  0.09402  1.0000
  O  Te16      1.0  0.69074  0.29781  0.35927  1.0000
  Mg  Mg7       1.0  0.47014  0.20019  0.01064  1.0000
  Mg  Mg8       1.0  0.70390  0.37756  0.42702  1.0000
  C  Sn17      1.0  0.69335  0.60832  0.37074  1.0000
  C   C57       1.0  0.65320  0.63381  0.29244  1.0000
  C  Sn18      1.0  0.66539  0.66475  0.16512  1.0000
  C  Sn19      1.0  0.71881  0.67029  0.11495  1.0000
  C   C58       1.0  0.75891  0.64480  0.19321  1.0000
  C  Sn20      1.0  0.74677  0.61386  0.32057  1.0000
  O  Te17      1.0  0.68025  0.57758  0.49774  1.0000
  O  Te18      1.0  0.62458  0.68987  0.08872  1.0000
  O  Te19      1.0  0.75215  0.69796  0.98784  1.0000
  O  Te20      1.0  0.78754  0.58875  0.39693  1.0000
  Mg  Mg9       1.0  0.68263  0.72434  0.92171  1.0000
  Mg  Mg10      1.0  0.74979  0.55114  0.56390  1.0000
  C  Sn21      1.0  0.27237  0.38688  0.13806  1.0000
  C   C59       1.0  0.24301  0.34972  0.23371  1.0000
  C  Sn22      1.0  0.26965  0.32574  0.35214  1.0000
  C  Sn23      1.0  0.32683  0.33922  0.37552  1.0000
  C   C60       1.0  0.35617  0.37638  0.27992  1.0000
  C  Sn24      1.0  0.32956  0.40037  0.16144  1.0000
  O  Te21      1.0  0.24490  0.41036  0.02039  1.0000
  O  Te22      1.0  0.23942  0.28868  0.44625  1.0000
  O  Te23      1.0  0.35430  0.31571  0.49331  1.0000
  O  Te24      1.0  0.35976  0.43741  0.06738  1.0000
  Mg  Mg11      1.0  0.29529  0.26755  0.59115  1.0000
  Mg  Mg12      1.0  0.32419  0.45549  0.92250  1.0000
  C  Sn25      1.0  0.97947  0.48687  0.88849  1.0000
  C   C61       1.0  0.97147  0.53803  0.81870  1.0000
  C  Sn26      1.0  0.99547  0.55333  0.68739  1.0000
  C  Sn27      1.0  0.02813  0.51672  0.62445  1.0000
  C   C62       1.0  0.03610  0.46559  0.69422  1.0000
  C  Sn28      1.0  0.01212  0.45026  0.82556  1.0000
  O  Te25      1.0  0.93481  0.47553  0.01968  1.0000
  O  Te26      1.0  0.98690  0.60471  0.61967  1.0000
  O  Te27      1.0  0.05252  0.53121  0.49316  1.0000
  O  Te28      1.0  0.02067  0.39892  0.89324  1.0000
  Mg  Mg13      1.0  0.02877  0.60564  0.44241  1.0000
  Mg  Mg14      1.0  0.95854  0.40103  0.07046  1.0000
  C  Sn29      1.0  0.45977  0.99418  0.62502  1.0000
  C   C63       1.0  0.46312  0.95118  0.72944  1.0000
  C  Sn30      1.0  0.50606  0.95563  0.83518  1.0000
  C  Sn31      1.0  0.41436  0.00408  0.83665  1.0000
  C   C64       1.0  0.41100  0.04705  0.73229  1.0000
  C  Sn32      1.0  0.36807  0.04263  0.62649  1.0000
  O  Te29      1.0  0.41648  0.98884  0.52033  1.0000
  O  Te30      1.0  0.50855  0.91208  0.93842  1.0000
  O  Te31      1.0  0.45768  0.00939  0.94145  1.0000
  O  Te32      1.0  0.36557  0.08615  0.52332  1.0000
  Mg  Mg15      1.0  0.55513  0.94198  0.05909  1.0000
  Mg  Mg16      1.0  0.29872  0.05941  0.40265  1.0000
  C  Sn33      1.0  0.36596  0.68146  0.72561  1.0000
  C   C65       1.0  0.37026  0.73025  0.81101  1.0000
  C  Sn34      1.0  0.42081  0.75464  0.87124  1.0000
  C  Sn35      1.0  0.46805  0.72977  0.84549  1.0000
  C   C66       1.0  0.46374  0.68101  0.76012  1.0000
  C  Sn36      1.0  0.41321  0.65658  0.69987  1.0000
  O  Te33      1.0  0.31501  0.65780  0.66649  1.0000
  O  Te34      1.0  0.42408  0.80342  0.95629  1.0000
  O  Te35      1.0  0.51902  0.75347  0.90471  1.0000
  O  Te36      1.0  0.40992  0.60784  0.61484  1.0000
  Mg  Mg17      1.0  0.48236  0.82305  0.01303  1.0000
  Mg  Mg18      1.0  0.33140  0.59130  0.55799  1.0000
  C  Sn37      1.0  0.61274  0.33837  0.77365  1.0000
  C   C67       1.0  0.55970  0.33434  0.71187  1.0000
  C  Sn38      1.0  0.53365  0.28276  0.65521  1.0000
  C  Sn39      1.0  0.56116  0.23418  0.66050  1.0000
  C   C68       1.0  0.61416  0.23823  0.72227  1.0000
  C  Sn40      1.0  0.64025  0.28980  0.77893  1.0000
  O  Te37      1.0  0.63799  0.39036  0.82963  1.0000
  O  Te38      1.0  0.48062  0.27977  0.59394  1.0000
  O  Te39      1.0  0.53585  0.18217  0.60444  1.0000
  O  Te40      1.0  0.69324  0.29279  0.84019  1.0000
  Mg  Mg19      1.0  0.46339  0.19945  0.53209  1.0000
  Mg  Mg20      1.0  0.71049  0.37308  0.90215  1.0000
  C  Sn41      1.0  0.67890  0.66348  0.60739  1.0000
  C   C69       1.0  0.64914  0.62632  0.70229  1.0000
  C  Sn42      1.0  0.67517  0.60328  0.82321  1.0000
  C  Sn43      1.0  0.73213  0.61770  0.84989  1.0000
  C   C70       1.0  0.76185  0.65485  0.75504  1.0000
  C  Sn44      1.0  0.73585  0.67791  0.63407  1.0000
  O  Te41      1.0  0.65203  0.68602  0.48718  1.0000
  O  Te42      1.0  0.64457  0.56621  0.91651  1.0000
  O  Te43      1.0  0.75898  0.59513  0.97021  1.0000
  O  Te44      1.0  0.76642  0.71496  0.54082  1.0000
  Mg  Mg21      1.0  0.67937  0.54965  0.06571  1.0000
  Mg  Mg22      1.0  0.71138  0.73467  0.39163  1.0000
  C  Sn45      1.0  0.31792  0.31446  0.82449  1.0000
  C   C71       1.0  0.34845  0.35335  0.73522  1.0000
  C  Sn46      1.0  0.32544  0.39852  0.66957  1.0000
  C  Sn47      1.0  0.27079  0.40498  0.69371  1.0000
  C   C72       1.0  0.24029  0.36612  0.78295  1.0000
  C  Sn48      1.0  0.26327  0.32092  0.84864  1.0000
  O  Te45      1.0  0.34176  0.26962  0.88902  1.0000
  O  Te46      1.0  0.35677  0.43685  0.58072  1.0000
  O  Te47      1.0  0.24697  0.44987  0.62909  1.0000
  O  Te48      1.0  0.23198  0.28262  0.93745  1.0000
  Mg  Mg23      1.0  0.30615  0.49102  0.51710  1.0000
  Mg  Mg24      1.0  0.26229  0.23156  0.00118  1.0000
