data_image0
_chemical_formula_structural       H96C168N32O16C2Sn2C2HTe2HMgC2Sn2C2HTe2HMgC2Sn2C2HTe2HMgC2Sn2C2HTe2HMgC2Sn2C2HTe2HMgC2Sn2C2HTe2HMgC2Sn2C2HTe2HMgC2Sn2C2HTe2HMgC2Sn2C2HTe2HMgC2Sn2C2HTe2HMgC2Sn2C2HTe2HMgC2Sn2C2HTe2HMg
_chemical_formula_sum              "H120 C216 N32 O16 Sn24 Te24 Mg12"
_cell_length_a       38.1401
_cell_length_b       42.5475
_cell_length_c       8.00083
_cell_angle_alpha    113.489
_cell_angle_beta     90.2242
_cell_angle_gamma    90.0036

_symmetry_space_group_name_H-M    'P1'
_space_group_IT_number       1

loop_
  _space_group_symop_operation_xyz
  'x, y, z'

loop_
  _atom_site_type_symbol
  _atom_site_label
  _atom_site_symmetry_multiplicity
  _atom_site_fract_x
  _atom_site_fract_y
  _atom_site_fract_z
  _atom_site_occupancy
  H   H1        1.0  0.53100  0.43007  0.08074  1.0000
  H   H2        1.0  0.46858  0.58770  0.08038  1.0000
  H   H3        1.0  0.53188  0.58719  0.08306  1.0000
  H   H4        1.0  0.46662  0.42989  0.07586  1.0000
  H   H5        1.0  0.03012  0.92786  0.06172  1.0000
  H   H6        1.0  0.96872  0.08712  0.07804  1.0000
  H   H7        1.0  0.03202  0.08610  0.07176  1.0000
  H   H8        1.0  0.96596  0.92842  0.06250  1.0000
  H   H9        1.0  0.44459  0.57799  0.36737  1.0000
  H   H10       1.0  0.56766  0.40418  0.28179  1.0000
  H   H11       1.0  0.93791  0.90086  0.27867  1.0000
  H   H12       1.0  0.05534  0.07542  0.33665  1.0000
  H   H13       1.0  0.94202  0.07571  0.35492  1.0000
  H   H14       1.0  0.40866  0.62678  0.37775  1.0000
  H   H15       1.0  0.60356  0.35497  0.27166  1.0000
  H   H16       1.0  0.89881  0.85268  0.25491  1.0000
  H   H17       1.0  0.08914  0.12526  0.34257  1.0000
  H   H18       1.0  0.90557  0.12476  0.37350  1.0000
  H   H19       1.0  0.67911  0.59198  0.08889  1.0000
  H   H20       1.0  0.83060  0.92625  0.19519  1.0000
  H   H21       1.0  0.82087  0.09348  0.08744  1.0000
  H   H22       1.0  0.16922  0.92321  0.16173  1.0000
  H   H23       1.0  0.64217  0.54316  0.08382  1.0000
  H   H24       1.0  0.86679  0.97573  0.20462  1.0000
  H   H25       1.0  0.85765  0.04405  0.07588  1.0000
  H   H26       1.0  0.13328  0.97306  0.17638  1.0000
  H   H27       1.0  0.35051  0.33300  0.39588  1.0000
  H   H28       1.0  0.64365  0.65986  0.44797  1.0000
  H   H29       1.0  0.35632  0.65824  0.43395  1.0000
  H   H30       1.0  0.65142  0.33092  0.37196  1.0000
  H   H31       1.0  0.84959  0.82969  0.35075  1.0000
  H   H32       1.0  0.13941  0.16125  0.42028  1.0000
  H   H33       1.0  0.85532  0.15743  0.44878  1.0000
  H   H34       1.0  0.14989  0.83167  0.38923  1.0000
  H   H35       1.0  0.68719  0.75936  0.96551  1.0000
  H   H36       1.0  0.81411  0.74456  0.05956  1.0000
  H   H37       1.0  0.73044  0.80263  0.95528  1.0000
  H   H38       1.0  0.77146  0.70245  0.07298  1.0000
  H   H39       1.0  0.23253  0.17904  0.13034  1.0000
  H   H40       1.0  0.77151  0.84152  0.13407  1.0000
  H   H41       1.0  0.22182  0.83761  0.13557  1.0000
  H   H42       1.0  0.77128  0.18395  0.14305  1.0000
  H   H43       1.0  0.73274  0.67772  0.10769  1.0000
  H   H44       1.0  0.27561  0.33927  0.15275  1.0000
  H   H45       1.0  0.72956  0.34374  0.13942  1.0000
  H   H46       1.0  0.26601  0.67907  0.12883  1.0000
  H   H47       1.0  0.53370  0.42489  0.56272  1.0000
  H   H48       1.0  0.46990  0.58549  0.60416  1.0000
  H   H49       1.0  0.53346  0.58471  0.58554  1.0000
  H   H50       1.0  0.46914  0.42473  0.56048  1.0000
  H   H51       1.0  0.03538  0.92492  0.55276  1.0000
  H   H52       1.0  0.96819  0.08405  0.59186  1.0000
  H   H53       1.0  0.03198  0.08511  0.59236  1.0000
  H   H54       1.0  0.97085  0.92457  0.56013  1.0000
  H   H55       1.0  0.55767  0.57776  0.84428  1.0000
  H   H56       1.0  0.93225  0.90705  0.77933  1.0000
  H   H57       1.0  0.94234  0.08025  0.84761  1.0000
  H   H58       1.0  0.06107  0.90506  0.78676  1.0000
  H   H59       1.0  0.59368  0.62647  0.85258  1.0000
  H   H60       1.0  0.89606  0.85797  0.76941  1.0000
  H   H61       1.0  0.90695  0.13011  0.86901  1.0000
  H   H62       1.0  0.09658  0.85540  0.77237  1.0000
  H   H63       1.0  0.32083  0.58823  0.57427  1.0000
  H   H64       1.0  0.67012  0.42297  0.69673  1.0000
  H   H65       1.0  0.82938  0.92267  0.65131  1.0000
  H   H66       1.0  0.17810  0.09309  0.56536  1.0000
  H   H67       1.0  0.82078  0.08745  0.59766  1.0000
  H   H68       1.0  0.35806  0.54023  0.57692  1.0000
  H   H69       1.0  0.63440  0.47252  0.70397  1.0000
  H   H70       1.0  0.86762  0.97131  0.66656  1.0000
  H   H71       1.0  0.14385  0.04281  0.56049  1.0000
  H   H72       1.0  0.85832  0.03861  0.58544  1.0000
  H   H73       1.0  0.35163  0.33335  0.88200  1.0000
  H   H74       1.0  0.64568  0.66015  0.93143  1.0000
  H   H75       1.0  0.35092  0.65954  0.93188  1.0000
  H   H76       1.0  0.64866  0.33575  0.89962  1.0000
  H   H77       1.0  0.85176  0.83352  0.88906  1.0000
  H   H78       1.0  0.14685  0.15885  0.93582  1.0000
  H   H79       1.0  0.85506  0.16209  0.93429  1.0000
  H   H80       1.0  0.14528  0.83065  0.86374  1.0000
  H   H81       1.0  0.68567  0.24241  0.58904  1.0000
  H   H82       1.0  0.31416  0.76372  0.52026  1.0000
  H   H83       1.0  0.18711  0.73610  0.48669  1.0000
  H   H84       1.0  0.81093  0.25778  0.47210  1.0000
  H   H85       1.0  0.72941  0.20048  0.59525  1.0000
  H   H86       1.0  0.27006  0.80630  0.51238  1.0000
  H   H87       1.0  0.23121  0.69346  0.49204  1.0000
  H   H88       1.0  0.76630  0.29944  0.45809  1.0000
  H   H89       1.0  0.22280  0.18575  0.64119  1.0000
  H   H90       1.0  0.77236  0.83986  0.61983  1.0000
  H   H91       1.0  0.22643  0.83797  0.65613  1.0000
  H   H92       1.0  0.76933  0.17751  0.63766  1.0000
  H   H93       1.0  0.73281  0.67619  0.60177  1.0000
  H   H94       1.0  0.27042  0.34337  0.64199  1.0000
  H   H95       1.0  0.72806  0.33835  0.64228  1.0000
  H   H96       1.0  0.26966  0.67697  0.61434  1.0000
  C   C1        1.0  0.51696  0.44933  0.04996  1.0000
  C   C2        1.0  0.48196  0.56345  0.04522  1.0000
  C   C3        1.0  0.51785  0.56317  0.04548  1.0000
  C   C4        1.0  0.48098  0.44928  0.04765  1.0000
  C   C5        1.0  0.01622  0.94767  0.03511  1.0000
  C   C6        1.0  0.98203  0.06276  0.04054  1.0000
  C   C7        1.0  0.01795  0.06219  0.03737  1.0000
  C   C8        1.0  0.98025  0.94808  0.03631  1.0000
  C   C9        1.0  0.53648  0.47515  0.02102  1.0000
  C   C10       1.0  0.46199  0.53309  0.00829  1.0000
  C   C11       1.0  0.53721  0.53244  0.00615  1.0000
  C   C12       1.0  0.46180  0.47517  0.01697  1.0000
  C   C13       1.0  0.03588  0.97351  0.00689  1.0000
  C   C14       1.0  0.96189  0.03253  0.00330  1.0000
  C   C15       1.0  0.03716  0.03142  0.99894  1.0000
  C   C16       1.0  0.96128  0.97458  0.01042  1.0000
  C   C17       1.0  0.42662  0.47138  0.50580  1.0000
  C   C18       1.0  0.57650  0.52838  0.48988  1.0000
  C   C19       1.0  0.42624  0.52945  0.50110  1.0000
  C   C20       1.0  0.57625  0.47138  0.50840  1.0000
  C   C21       1.0  0.92739  0.96936  0.49551  1.0000
  C   C22       1.0  0.07591  0.02929  0.48374  1.0000
  C   C23       1.0  0.92571  0.02725  0.48877  1.0000
  C   C24       1.0  0.07707  0.97149  0.49346  1.0000
  C   C25       1.0  0.40473  0.55656  0.48253  1.0000
  C   C26       1.0  0.59786  0.44171  0.49802  1.0000
  C   C27       1.0  0.90574  0.93945  0.47798  1.0000
  C   C28       1.0  0.09618  0.05679  0.46171  1.0000
  C   C29       1.0  0.90361  0.05480  0.48021  1.0000
  C   C30       1.0  0.41818  0.58087  0.42151  1.0000
  C   C31       1.0  0.58962  0.40825  0.37520  1.0000
  C   C32       1.0  0.91437  0.90569  0.36154  1.0000
  C   C33       1.0  0.08154  0.07996  0.39529  1.0000
  C   C34       1.0  0.91618  0.07894  0.41594  1.0000
  C   C35       1.0  0.39771  0.60810  0.42450  1.0000
  C   C36       1.0  0.61007  0.38069  0.36845  1.0000
  C   C37       1.0  0.89240  0.87866  0.34837  1.0000
  C   C38       1.0  0.10065  0.10794  0.39753  1.0000
  C   C39       1.0  0.89545  0.10633  0.42431  1.0000
  C   C40       1.0  0.36268  0.61175  0.48418  1.0000
  C   C41       1.0  0.63943  0.38559  0.48340  1.0000
  C   C42       1.0  0.86165  0.88433  0.45316  1.0000
  C   C43       1.0  0.13520  0.11395  0.46599  1.0000
  C   C44       1.0  0.86118  0.11051  0.49442  1.0000
  C   C45       1.0  0.65237  0.58876  0.03680  1.0000
  C   C46       1.0  0.85245  0.92241  0.10221  1.0000
  C   C47       1.0  0.84773  0.09068  0.03823  1.0000
  C   C48       1.0  0.14574  0.91945  0.07841  1.0000
  C   C49       1.0  0.63188  0.56160  0.03300  1.0000
  C   C50       1.0  0.87272  0.94996  0.10699  1.0000
  C   C51       1.0  0.86805  0.06316  0.03061  1.0000
  C   C52       1.0  0.12564  0.94722  0.08656  1.0000
  C   C53       1.0  0.34061  0.35855  0.47748  1.0000
  C   C54       1.0  0.65775  0.64215  0.49193  1.0000
  C   C55       1.0  0.34340  0.64152  0.48838  1.0000
  C   C56       1.0  0.65984  0.35584  0.47118  1.0000
  C   C57       1.0  0.84086  0.85499  0.44341  1.0000
  C   C58       1.0  0.15278  0.14513  0.47745  1.0000
  C   C59       1.0  0.84216  0.14080  0.50345  1.0000
  C   C60       1.0  0.15988  0.85684  0.47783  1.0000
  C   C61       1.0  0.72582  0.72858  0.02217  1.0000
  C   C62       1.0  0.77525  0.77682  0.01156  1.0000
  C   C63       1.0  0.71503  0.75718  0.99017  1.0000
  C   C64       1.0  0.78630  0.74796  0.04088  1.0000
  C   C65       1.0  0.73940  0.78122  0.98601  1.0000
  C   C66       1.0  0.76177  0.72429  0.04805  1.0000
  C   C67       1.0  0.69722  0.70405  0.01861  1.0000
  C   C68       1.0  0.30456  0.29836  0.98369  1.0000
  C   C69       1.0  0.69791  0.30243  0.99707  1.0000
  C   C70       1.0  0.29971  0.70332  0.01831  1.0000
  C   C71       1.0  0.19847  0.20339  0.02182  1.0000
  C   C72       1.0  0.80295  0.80004  0.99202  1.0000
  C   C73       1.0  0.19263  0.79623  0.96934  1.0000
  C   C74       1.0  0.80491  0.20785  0.02963  1.0000
  C   C75       1.0  0.48051  0.50383  0.00988  1.0000
  C   C76       1.0  0.51817  0.50364  0.01017  1.0000
  C   C77       1.0  0.98022  0.00314  0.00390  1.0000
  C   C78       1.0  0.01789  0.00261  0.00180  1.0000
  C   C79       1.0  0.41125  0.50019  0.50365  1.0000
  C   C80       1.0  0.59158  0.49976  0.50056  1.0000
  C   C81       1.0  0.91123  0.99813  0.49573  1.0000
  C   C82       1.0  0.09170  0.00052  0.48939  1.0000
  C   C83       1.0  0.51936  0.44512  0.54206  1.0000
  C   C84       1.0  0.48365  0.56129  0.56296  1.0000
  C   C85       1.0  0.51945  0.56082  0.55386  1.0000
  C   C86       1.0  0.48346  0.44494  0.53967  1.0000
  C   C87       1.0  0.02062  0.94459  0.52906  1.0000
  C   C88       1.0  0.98254  0.06019  0.55217  1.0000
  C   C89       1.0  0.01836  0.06084  0.55387  1.0000
  C   C90       1.0  0.98475  0.94437  0.53329  1.0000
  C   C91       1.0  0.53870  0.47196  0.52091  1.0000
  C   C92       1.0  0.46377  0.53078  0.52405  1.0000
  C   C93       1.0  0.53896  0.52991  0.51136  1.0000
  C   C94       1.0  0.46415  0.47168  0.51691  1.0000
  C   C95       1.0  0.03941  0.97116  0.50163  1.0000
  C   C96       1.0  0.96338  0.02897  0.50613  1.0000
  C   C97       1.0  0.03853  0.03038  0.51028  1.0000
  C   C98       1.0  0.96485  0.97062  0.50956  1.0000
  C   C99       1.0  0.42410  0.47448  0.00441  1.0000
  C   C100      1.0  0.57485  0.53085  0.98683  1.0000
  C   C101      1.0  0.42438  0.53181  0.98922  1.0000
  C   C102      1.0  0.57411  0.47445  0.00968  1.0000
  C   C103      1.0  0.92360  0.97435  0.99854  1.0000
  C   C104      1.0  0.07484  0.02944  0.97744  1.0000
  C   C105      1.0  0.92426  0.03157  0.98297  1.0000
  C   C106      1.0  0.07349  0.97228  0.99329  1.0000
  C   C107      1.0  0.59654  0.55818  0.97346  1.0000
  C   C108      1.0  0.90211  0.94489  0.99316  1.0000
  C   C109      1.0  0.90335  0.05967  0.97201  1.0000
  C   C110      1.0  0.09437  0.94249  0.98515  1.0000
  C   C111      1.0  0.58359  0.58173  0.90580  1.0000
  C   C112      1.0  0.91017  0.91133  0.87138  1.0000
  C   C113      1.0  0.91658  0.08386  0.90956  1.0000
  C   C114      1.0  0.08444  0.90899  0.87085  1.0000
  C   C115      1.0  0.60403  0.60904  0.90989  1.0000
  C   C116      1.0  0.88978  0.88378  0.86557  1.0000
  C   C117      1.0  0.89646  0.11173  0.91922  1.0000
  C   C118      1.0  0.10471  0.88116  0.86141  1.0000
  C   C119      1.0  0.63845  0.61358  0.97991  1.0000
  C   C120      1.0  0.86061  0.88880  0.98050  1.0000
  C   C121      1.0  0.86208  0.11611  0.98774  1.0000
  C   C122      1.0  0.13561  0.88583  0.96519  1.0000
  C   C123      1.0  0.34815  0.58604  0.53187  1.0000
  C   C124      1.0  0.64787  0.41914  0.60517  1.0000
  C   C125      1.0  0.85280  0.91817  0.56789  1.0000
  C   C126      1.0  0.15104  0.08923  0.51753  1.0000
  C   C127      1.0  0.84747  0.08495  0.54636  1.0000
  C   C128      1.0  0.36881  0.55917  0.53139  1.0000
  C   C129      1.0  0.62777  0.44669  0.60957  1.0000
  C   C130      1.0  0.87417  0.94516  0.57697  1.0000
  C   C131      1.0  0.13196  0.06125  0.51442  1.0000
  C   C132      1.0  0.86830  0.05767  0.53858  1.0000
  C   C133      1.0  0.34187  0.35830  0.97479  1.0000
  C   C134      1.0  0.65829  0.64311  0.98500  1.0000
  C   C135      1.0  0.33908  0.64330  0.99242  1.0000
  C   C136      1.0  0.65921  0.36095  0.98352  1.0000
  C   C137      1.0  0.84090  0.85874  0.97137  1.0000
  C   C138      1.0  0.16000  0.14181  0.98789  1.0000
  C   C139      1.0  0.84298  0.14624  0.99653  1.0000
  C   C140      1.0  0.15507  0.85569  0.95497  1.0000
  C   C141      1.0  0.72305  0.27425  0.52859  1.0000
  C   C142      1.0  0.27577  0.72680  0.51827  1.0000
  C   C143      1.0  0.22544  0.77418  0.50538  1.0000
  C   C144      1.0  0.77404  0.22670  0.53801  1.0000
  C   C145      1.0  0.71317  0.24571  0.56374  1.0000
  C   C146      1.0  0.28622  0.75864  0.52088  1.0000
  C   C147      1.0  0.21495  0.74214  0.49904  1.0000
  C   C148      1.0  0.78355  0.25516  0.50135  1.0000
  C   C149      1.0  0.73839  0.22233  0.56865  1.0000
  C   C150      1.0  0.26133  0.78220  0.51614  1.0000
  C   C151      1.0  0.23986  0.71874  0.50549  1.0000
  C   C152      1.0  0.75851  0.27855  0.49603  1.0000
  C   C153      1.0  0.69729  0.70212  0.50816  1.0000
  C   C154      1.0  0.30043  0.30126  0.49281  1.0000
  C   C155      1.0  0.69522  0.29752  0.51024  1.0000
  C   C156      1.0  0.30453  0.70246  0.51595  1.0000
  C   C157      1.0  0.19117  0.20706  0.50588  1.0000
  C   C158      1.0  0.80360  0.79804  0.48618  1.0000
  C   C159      1.0  0.19762  0.79704  0.48355  1.0000
  C   C160      1.0  0.80329  0.20244  0.53311  1.0000
  C   C161      1.0  0.48260  0.50116  0.51885  1.0000
  C   C162      1.0  0.52024  0.50099  0.51675  1.0000
  C   C163      1.0  0.98275  0.99991  0.50539  1.0000
  C   C164      1.0  0.02034  0.00041  0.50446  1.0000
  C   C165      1.0  0.40911  0.50262  0.99206  1.0000
  C   C166      1.0  0.58985  0.50213  0.99573  1.0000
  C   C167      1.0  0.90863  0.00249  0.98543  1.0000
  C   C168      1.0  0.08928  0.00009  0.98155  1.0000
  N   N1        1.0  0.68997  0.64859  0.05293  1.0000
  N   N2        1.0  0.31427  0.36156  0.07567  1.0000
  N   N3        1.0  0.68844  0.36506  0.07444  1.0000
  N   N4        1.0  0.30820  0.64941  0.06728  1.0000
  N   N5        1.0  0.19123  0.14816  0.06059  1.0000
  N   N6        1.0  0.81174  0.86268  0.06191  1.0000
  N   N7        1.0  0.18289  0.85929  0.05603  1.0000
  N   N8        1.0  0.81266  0.15351  0.07684  1.0000
  N   N9        1.0  0.20894  0.17671  0.06730  1.0000
  N   N10       1.0  0.79336  0.83437  0.05544  1.0000
  N   N11       1.0  0.20111  0.83092  0.04810  1.0000
  N   N12       1.0  0.79457  0.18151  0.07871  1.0000
  N   N13       1.0  0.70828  0.67642  0.05431  1.0000
  N   N14       1.0  0.29629  0.33289  0.06590  1.0000
  N   N15       1.0  0.70732  0.33680  0.06327  1.0000
  N   N16       1.0  0.28950  0.67681  0.06560  1.0000
  N   N17       1.0  0.69022  0.64712  0.54918  1.0000
  N   N18       1.0  0.31164  0.36360  0.57023  1.0000
  N   N19       1.0  0.68716  0.35973  0.57573  1.0000
  N   N20       1.0  0.31196  0.64751  0.55691  1.0000
  N   N21       1.0  0.18322  0.15312  0.55771  1.0000
  N   N22       1.0  0.81327  0.85979  0.54598  1.0000
  N   N23       1.0  0.18789  0.86038  0.57753  1.0000
  N   N24       1.0  0.81101  0.14740  0.57542  1.0000
  N   N25       1.0  0.20047  0.18189  0.56588  1.0000
  N   N26       1.0  0.79386  0.83214  0.53924  1.0000
  N   N27       1.0  0.20551  0.83167  0.57008  1.0000
  N   N28       1.0  0.79319  0.17568  0.57920  1.0000
  N   N29       1.0  0.70797  0.67540  0.55317  1.0000
  N   N30       1.0  0.29220  0.33591  0.56317  1.0000
  N   N31       1.0  0.70615  0.33141  0.56362  1.0000
  N   N32       1.0  0.29371  0.67532  0.55761  1.0000
  O   O1        1.0  0.16832  0.20672  0.97413  1.0000
  O   O2        1.0  0.83166  0.78893  0.92269  1.0000
  O   O3        1.0  0.16504  0.78468  0.88601  1.0000
  O   O4        1.0  0.83496  0.21098  0.98107  1.0000
  O   O5        1.0  0.66647  0.70839  0.98171  1.0000
  O   O6        1.0  0.33181  0.28700  0.89771  1.0000
  O   O7        1.0  0.66894  0.29102  0.93046  1.0000
  O   O8        1.0  0.32990  0.70703  0.97308  1.0000
  O   O9        1.0  0.16192  0.20900  0.44268  1.0000
  O   O10       1.0  0.83279  0.78676  0.42518  1.0000
  O   O11       1.0  0.17059  0.78543  0.39377  1.0000
  O   O12       1.0  0.83331  0.20620  0.48683  1.0000
  O   O13       1.0  0.66707  0.70545  0.46139  1.0000
  O   O14       1.0  0.32878  0.28919  0.42071  1.0000
  O   O15       1.0  0.66556  0.28708  0.44954  1.0000
  O   O16       1.0  0.33503  0.70657  0.47658  1.0000
  C   C169      1.0  0.77107  0.72546  0.54249  1.0000
  C   C170      1.0  0.73448  0.72595  0.53371  1.0000
  C  Sn1       1.0  0.71737  0.75200  0.50107  1.0000
  C  Sn2       1.0  0.73733  0.77800  0.47677  1.0000
  C   C171      1.0  0.77392  0.77726  0.48568  1.0000
  C   C172      1.0  0.79077  0.75108  0.51847  1.0000
  H   H97       1.0  0.78411  0.70520  0.56777  1.0000
  O  Te1       1.0  0.68080  0.75211  0.49279  1.0000
  O  Te2       1.0  0.72090  0.80432  0.44390  1.0000
  H   H98       1.0  0.81910  0.75070  0.52515  1.0000
  Mg  Mg1       1.0  0.67046  0.79338  0.44479  1.0000
  C   C173      1.0  0.21186  0.73349  0.99382  1.0000
  C   C174      1.0  0.21628  0.69176  0.00396  1.0000
  C  Sn3       1.0  0.25022  0.70466  0.01241  1.0000
  C  Sn4       1.0  0.27941  0.68385  0.01060  1.0000
  C   C175      1.0  0.27389  0.65064  0.00029  1.0000
  C   C176      1.0  0.24063  0.71295  0.99195  1.0000
  H   H99       1.0  0.18549  0.72370  0.98727  1.0000
  O  Te3       1.0  0.25500  0.73791  0.02256  1.0000
  O  Te4       1.0  0.31362  0.69610  0.01883  1.0000
  H   H100      1.0  0.23658  0.68722  0.98398  1.0000
  Mg  Mg2       1.0  0.30666  0.74310  0.03129  1.0000
  C   C177      1.0  0.27273  0.22542  0.04442  1.0000
  C   C178      1.0  0.23613  0.22644  0.03946  1.0000
  C  Sn5       1.0  0.21914  0.25262  0.00748  1.0000
  C  Sn6       1.0  0.24006  0.35316  0.97996  1.0000
  C   C179      1.0  0.27666  0.35189  0.98505  1.0000
  C   C180      1.0  0.29257  0.25064  0.01721  1.0000
  H   H101      1.0  0.28568  0.20506  0.06920  1.0000
  O  Te5       1.0  0.18256  0.25327  0.00304  1.0000
  O  Te6       1.0  0.22375  0.37961  0.94767  1.0000
  H   H102      1.0  0.32091  0.24984  0.02093  1.0000
  Mg  Mg3       1.0  0.17324  0.36945  0.95434  1.0000
  C   C181      1.0  0.14189  0.06238  0.02378  1.0000
  C   C182      1.0  0.10717  0.13157  0.97874  1.0000
  C  Sn7       1.0  0.08874  0.15337  0.91768  1.0000
  C  Sn8       1.0  0.10628  0.18142  0.90150  1.0000
  C   C183      1.0  0.14184  0.18695  0.94677  1.0000
  C   C184      1.0  0.15921  0.09004  0.00779  1.0000
  H   H103      1.0  0.15597  0.04537  0.07090  1.0000
  O  Te7       1.0  0.05324  0.14725  0.87332  1.0000
  O  Te8       1.0  0.08849  0.20360  0.84075  1.0000
  H   H104      1.0  0.18673  0.09449  0.04254  1.0000
  Mg  Mg4       1.0  0.04030  0.18464  0.79681  1.0000
  C   C185      1.0  0.34683  0.58024  0.04573  1.0000
  C   C186      1.0  0.35521  0.60846  0.00576  1.0000
  C  Sn9       1.0  0.38907  0.68589  0.93713  1.0000
  C  Sn10      1.0  0.41412  0.65959  0.90808  1.0000
  C   C187      1.0  0.40547  0.63146  0.94838  1.0000
  C   C188      1.0  0.37151  0.55428  0.01705  1.0000
  H   H105      1.0  0.32119  0.57850  0.09877  1.0000
  O  Te9       1.0  0.39702  0.71427  0.89799  1.0000
  O  Te10      1.0  0.44733  0.66143  0.83956  1.0000
  H   H106      1.0  0.36502  0.53242  0.04787  1.0000
  Mg  Mg5       1.0  0.44578  0.70517  0.80709  1.0000
  C   C189      1.0  0.35551  0.43085  0.62434  1.0000
  C   C190      1.0  0.35697  0.39631  0.50560  1.0000
  C  Sn11      1.0  0.38426  0.38433  0.38011  1.0000
  C  Sn12      1.0  0.41055  0.40742  0.37373  1.0000
  C   C191      1.0  0.40887  0.44192  0.49319  1.0000
  C   C192      1.0  0.38143  0.45363  0.61819  1.0000
  H   H107      1.0  0.33429  0.43991  0.72113  1.0000
  O  Te11      1.0  0.38532  0.34974  0.26242  1.0000
  O  Te12      1.0  0.43813  0.39613  0.24970  1.0000
  H   H108      1.0  0.38032  0.48038  0.71019  1.0000
  Mg  Mg6       1.0  0.42814  0.34663  0.11742  1.0000
  C   C193      1.0  0.26526  0.22880  0.54391  1.0000
  C   C194      1.0  0.22876  0.23038  0.53357  1.0000
  C  Sn13      1.0  0.21287  0.25703  0.50135  1.0000
  C  Sn14      1.0  0.23398  0.28254  0.47908  1.0000
  C   C195      1.0  0.27047  0.28072  0.48953  1.0000
  C   C196      1.0  0.28610  0.25394  0.52189  1.0000
  H   H109      1.0  0.27735  0.20807  0.56884  1.0000
  O  Te13      1.0  0.17636  0.25823  0.49150  1.0000
  O  Te14      1.0  0.21878  0.30946  0.44667  1.0000
  H   H110      1.0  0.31436  0.25272  0.52977  1.0000
  Mg  Mg7       1.0  0.16792  0.29997  0.44489  1.0000
  C   C197      1.0  0.10302  0.88447  0.35361  1.0000
  C   C198      1.0  0.13418  0.88488  0.44696  1.0000
  C  Sn15      1.0  0.14735  0.91571  0.57552  1.0000
  C  Sn16      1.0  0.12893  0.94668  0.61103  1.0000
  C   C199      1.0  0.09777  0.94599  0.51701  1.0000
  C   C200      1.0  0.08483  0.91499  0.38860  1.0000
  H   H111      1.0  0.09300  0.86048  0.25432  1.0000
  O  Te15      1.0  0.17852  0.91566  0.66751  1.0000
  O  Te16      1.0  0.14150  0.97785  0.73888  1.0000
  H   H112      1.0  0.06069  0.91468  0.31643  1.0000
  Mg  Mg8       1.0  0.18510  0.96461  0.82922  1.0000
  C   C201      1.0  0.35497  0.43152  0.13014  1.0000
  C   C202      1.0  0.35754  0.39699  0.01245  1.0000
  C  Sn17      1.0  0.38545  0.46085  0.88516  1.0000
  C  Sn18      1.0  0.41039  0.48484  0.87588  1.0000
  C   C203      1.0  0.40760  0.51933  0.99431  1.0000
  C   C204      1.0  0.37957  0.45520  0.12112  1.0000
  H   H113      1.0  0.33393  0.43989  0.22833  1.0000
  O  Te17      1.0  0.38762  0.42626  0.76856  1.0000
  O  Te18      1.0  0.43773  0.47446  0.75000  1.0000
  H   H114      1.0  0.37760  0.48193  0.21230  1.0000
  Mg  Mg9       1.0  0.42959  0.42457  0.62020  1.0000
  C   C205      1.0  0.64742  0.43409  0.11551  1.0000
  C   C206      1.0  0.64144  0.39886  0.02702  1.0000
  C  Sn19      1.0  0.61316  0.46158  0.91269  1.0000
  C  Sn20      1.0  0.58967  0.48511  0.88669  1.0000
  C   C207      1.0  0.59590  0.52031  0.97574  1.0000
  C   C208      1.0  0.62427  0.45732  0.08989  1.0000
  H   H115      1.0  0.67002  0.44336  0.20376  1.0000
  O  Te19      1.0  0.60757  0.42630  0.82538  1.0000
  O  Te20      1.0  0.56039  0.47358  0.77311  1.0000
  H   H116      1.0  0.62891  0.48460  0.15829  1.0000
  Mg  Mg10      1.0  0.56397  0.42310  0.68409  1.0000
  C   C209      1.0  0.58485  0.58786  0.40366  1.0000
  C   C210      1.0  0.59460  0.56012  0.44513  1.0000
  C  Sn21      1.0  0.62778  0.55924  0.51782  1.0000
  C  Sn22      1.0  0.65157  0.58668  0.54946  1.0000
  C   C211      1.0  0.64155  0.61433  0.50763  1.0000
  C   C212      1.0  0.60829  0.61494  0.43490  1.0000
  H   H117      1.0  0.55911  0.58835  0.34748  1.0000
  O  Te21      1.0  0.63710  0.53132  0.55841  1.0000
  O  Te22      1.0  0.68488  0.58646  0.62205  1.0000
  H   H118      1.0  0.60074  0.63644  0.40291  1.0000
  Mg  Mg11      1.0  0.68545  0.54275  0.65509  1.0000
  C   C213      1.0  0.73125  0.23137  0.06773  1.0000
  C   C214      1.0  0.76721  0.22938  0.03219  1.0000
  C  Sn23      1.0  0.78459  0.32952  0.98991  1.0000
  C  Sn24      1.0  0.76470  0.35718  0.98324  1.0000
  C   C215      1.0  0.72792  0.28400  0.01914  1.0000
  C   C216      1.0  0.71162  0.25865  0.06125  1.0000
  H   H119      1.0  0.71863  0.21177  0.10041  1.0000
  O  Te23      1.0  0.82053  0.32713  0.95471  1.0000
  O  Te24      1.0  0.78059  0.38271  0.94140  1.0000
  H   H120      1.0  0.68378  0.26021  0.08887  1.0000
  Mg  Mg12      1.0  0.83028  0.36819  0.90382  1.0000
