data_image0
_chemical_formula_structural       H84C156N24O12SnCSn2CSnTe4Mg2SnCSn2CSnTe4Mg2SnCSn2CSnTe4Mg2SnCSn2CSnTe4Mg2SnCSn2CSnTe4Mg2SnCSn2CSnTe4Mg2SnCSn2CSnTe4Mg2SnCSn2CSnTe4Mg2SnCSn2CSnTe4Mg2SnCSn2CSnTe4Mg2SnCSn2CSnTe4Mg2SnCSn2CSnTe4Mg2
_chemical_formula_sum              "H84 C180 N24 O12 Sn48 Te48 Mg24"
_cell_length_a       40.7268
_cell_length_b       40.6838
_cell_length_c       7.96539
_cell_angle_alpha    89.7784
_cell_angle_beta     91.0552
_cell_angle_gamma    120.302

_symmetry_space_group_name_H-M    'P1'
_space_group_IT_number       1

loop_
  _space_group_symop_operation_xyz
  'x, y, z'

loop_
  _atom_site_type_symbol
  _atom_site_label
  _atom_site_symmetry_multiplicity
  _atom_site_fract_x
  _atom_site_fract_y
  _atom_site_fract_z
  _atom_site_occupancy
  H   H1        1.0  0.39764  0.64143  0.25657  1.0000
  H   H2        1.0  0.35638  0.75575  0.21908  1.0000
  H   H3        1.0  0.24605  0.59803  0.22648  1.0000
  H   H4        1.0  0.46446  0.66465  0.17626  1.0000
  H   H5        1.0  0.33192  0.79865  0.13850  1.0000
  H   H6        1.0  0.20456  0.52938  0.16131  1.0000
  H   H7        1.0  0.50024  0.76945  0.44203  1.0000
  H   H8        1.0  0.23184  0.73093  0.42700  1.0000
  H   H9        1.0  0.26983  0.50266  0.50780  1.0000
  H   H10       1.0  0.43209  0.74292  0.03200  1.0000
  H   H11       1.0  0.57255  0.73872  0.17258  1.0000
  H   H12       1.0  0.25844  0.83352  0.15778  1.0000
  H   H13       1.0  0.16817  0.42231  0.22333  1.0000
  H   H14       1.0  0.17326  0.50915  0.44059  1.0000
  H   H15       1.0  0.11793  0.51815  0.44593  1.0000
  H   H16       1.0  0.05049  0.41271  0.17814  1.0000
  H   H17       1.0  0.10646  0.40413  0.16780  1.0000
  H   H18       1.0  0.44620  0.42559  0.33308  1.0000
  H   H19       1.0  0.57269  0.02106  0.32188  1.0000
  H   H20       1.0  0.43097  0.36260  0.22604  1.0000
  H   H21       1.0  0.63551  0.07017  0.22336  1.0000
  H   H22       1.0  0.54884  0.40694  0.11338  1.0000
  H   H23       1.0  0.59222  0.14587  0.13173  1.0000
  H   H24       1.0  0.56309  0.47057  0.20084  1.0000
  H   H25       1.0  0.52878  0.09543  0.21274  1.0000
  H   H26       1.0  0.44768  0.32968  0.54016  1.0000
  H   H27       1.0  0.66738  0.11237  0.55158  1.0000
  H   H28       1.0  0.88180  0.54904  0.49938  1.0000
  H   H29       1.0  0.72235  0.22994  0.24477  1.0000
  H   H30       1.0  0.71943  0.28951  0.27938  1.0000
  H   H31       1.0  0.75882  0.37444  0.49797  1.0000
  H   H32       1.0  0.81544  0.43653  0.42361  1.0000
  H   H33       1.0  0.63331  0.58050  0.02618  1.0000
  H   H34       1.0  0.41913  0.05634  0.00771  1.0000
  H   H35       1.0  0.94282  0.36475  0.01933  1.0000
  H   H36       1.0  0.58821  0.50377  0.44748  1.0000
  H   H37       1.0  0.49543  0.08418  0.45301  1.0000
  H   H38       1.0  0.92087  0.41717  0.43157  1.0000
  H   H39       1.0  0.40739  0.48608  0.07501  1.0000
  H   H40       1.0  0.51239  0.92420  0.05856  1.0000
  H   H41       1.0  0.08701  0.59449  0.06807  1.0000
  H   H42       1.0  0.45213  0.56080  0.16868  1.0000
  H   H43       1.0  0.43814  0.89262  0.15160  1.0000
  H   H44       1.0  0.11519  0.54920  0.17002  1.0000
  H   H45       1.0  0.39845  0.64437  0.72250  1.0000
  H   H46       1.0  0.46580  0.66899  0.64823  1.0000
  H   H47       1.0  0.50026  0.76641  0.96725  1.0000
  H   H48       1.0  0.43230  0.74715  0.50968  1.0000
  H   H49       1.0  0.25541  0.68628  0.49804  1.0000
  H   H50       1.0  0.31366  0.57215  0.56115  1.0000
  H   H51       1.0  0.57433  0.74021  0.68558  1.0000
  H   H52       1.0  0.25841  0.83153  0.63266  1.0000
  H   H53       1.0  0.16486  0.42432  0.68883  1.0000
  H   H54       1.0  0.48919  0.66030  0.92267  1.0000
  H   H55       1.0  0.33727  0.83120  0.90767  1.0000
  H   H56       1.0  0.48138  0.59630  0.94777  1.0000
  H   H57       1.0  0.39982  0.88929  0.94657  1.0000
  H   H58       1.0  0.58663  0.63436  0.69331  1.0000
  H   H59       1.0  0.36289  0.95255  0.64297  1.0000
  H   H60       1.0  0.59396  0.69842  0.66288  1.0000
  H   H61       1.0  0.30021  0.89407  0.60056  1.0000
  H   H62       1.0  0.44577  0.42551  0.81873  1.0000
  H   H63       1.0  0.43228  0.36307  0.71386  1.0000
  H   H64       1.0  0.55144  0.40837  0.62757  1.0000
  H   H65       1.0  0.56414  0.47159  0.71165  1.0000
  H   H66       1.0  0.44530  0.32938  0.03522  1.0000
  H   H67       1.0  0.66910  0.11899  0.05194  1.0000
  H   H68       1.0  0.88633  0.55373  0.00736  1.0000
  H   H69       1.0  0.77378  0.49496  0.72322  1.0000
  H   H70       1.0  0.71494  0.43297  0.77915  1.0000
  H   H71       1.0  0.61508  0.23944  0.99109  1.0000
  H   H72       1.0  0.62033  0.18185  0.94002  1.0000
  H   H73       1.0  0.63328  0.57915  0.52817  1.0000
  H   H74       1.0  0.41989  0.05336  0.51728  1.0000
  H   H75       1.0  0.94868  0.37021  0.50661  1.0000
  H   H76       1.0  0.58895  0.50530  0.94601  1.0000
  H   H77       1.0  0.49477  0.08541  0.95331  1.0000
  H   H78       1.0  0.91385  0.41038  0.94097  1.0000
  H   H79       1.0  0.40720  0.48523  0.57253  1.0000
  H   H80       1.0  0.50901  0.92261  0.57247  1.0000
  H   H81       1.0  0.07779  0.58667  0.55685  1.0000
  H   H82       1.0  0.45096  0.55994  0.66787  1.0000
  H   H83       1.0  0.43451  0.89281  0.65888  1.0000
  H   H84       1.0  0.10710  0.54252  0.66450  1.0000
  C   C1        1.0  0.37026  0.67966  0.41140  1.0000
  C   C2        1.0  0.32144  0.69175  0.39561  1.0000
  C   C3        1.0  0.30903  0.63066  0.41584  1.0000
  C   C4        1.0  0.42041  0.66918  0.29894  1.0000
  C   C5        1.0  0.32950  0.75100  0.26698  1.0000
  C   C6        1.0  0.25067  0.57697  0.29015  1.0000
  C   C7        1.0  0.45784  0.68210  0.25576  1.0000
  C   C8        1.0  0.31586  0.77508  0.22322  1.0000
  C   C9        1.0  0.22736  0.53850  0.25449  1.0000
  C   C10       1.0  0.48725  0.71837  0.30866  1.0000
  C   C11       1.0  0.28064  0.76847  0.28300  1.0000
  C   C12       1.0  0.23360  0.51107  0.33435  1.0000
  C   C13       1.0  0.47748  0.74150  0.40198  1.0000
  C   C14       1.0  0.25906  0.73600  0.38226  1.0000
  C   C15       1.0  0.26511  0.52378  0.44544  1.0000
  C   C16       1.0  0.43980  0.72903  0.43979  1.0000
  C   C17       1.0  0.27230  0.71137  0.42213  1.0000
  C   C18       1.0  0.28926  0.56244  0.47622  1.0000
  C   C19       1.0  0.41080  0.69269  0.38856  1.0000
  C   C20       1.0  0.30782  0.71867  0.36557  1.0000
  C   C21       1.0  0.28217  0.58948  0.39971  1.0000
  C   C22       1.0  0.54570  0.72018  0.23605  1.0000
  C   C23       1.0  0.27786  0.82519  0.21505  1.0000
  C   C24       1.0  0.17696  0.45088  0.27135  1.0000
  C   C25       1.0  0.14677  0.48828  0.38029  1.0000
  C   C26       1.0  0.11554  0.49331  0.38372  1.0000
  C   C27       1.0  0.08048  0.46667  0.30880  1.0000
  C   C28       1.0  0.07729  0.43368  0.23681  1.0000
  C   C29       1.0  0.10892  0.42908  0.23038  1.0000
  C   C30       1.0  0.14461  0.45681  0.29699  1.0000
  C   C31       1.0  0.55310  0.56053  0.36579  1.0000
  C   C32       1.0  0.43822  0.99310  0.34947  1.0000
  C   C33       1.0  0.01161  0.44885  0.34466  1.0000
  C   C34       1.0  0.54740  0.52308  0.35977  1.0000
  C   C35       1.0  0.47577  0.02503  0.35091  1.0000
  C   C36       1.0  0.98063  0.45567  0.33808  1.0000
  C   C37       1.0  0.51276  0.49221  0.29656  1.0000
  C   C38       1.0  0.50653  0.02189  0.28927  1.0000
  C   C39       1.0  0.98505  0.49013  0.27186  1.0000
  C   C40       1.0  0.48614  0.50290  0.24905  1.0000
  C   C41       1.0  0.49570  0.98488  0.23621  1.0000
  C   C42       1.0  0.02275  0.51591  0.22759  1.0000
  C   C43       1.0  0.49184  0.54028  0.25715  1.0000
  C   C44       1.0  0.45844  0.95279  0.24107  1.0000
  C   C45       1.0  0.05396  0.50963  0.24204  1.0000
  C   C46       1.0  0.52673  0.57110  0.31626  1.0000
  C   C47       1.0  0.42765  0.95629  0.29774  1.0000
  C   C48       1.0  0.04900  0.47461  0.30074  1.0000
  C   C49       1.0  0.46853  0.42171  0.28175  1.0000
  C   C50       1.0  0.57674  0.04810  0.27767  1.0000
  C   C51       1.0  0.46020  0.38618  0.22344  1.0000
  C   C52       1.0  0.61218  0.07600  0.22399  1.0000
  C   C53       1.0  0.48850  0.37996  0.15763  1.0000
  C   C54       1.0  0.61877  0.11154  0.16562  1.0000
  C   C55       1.0  0.52617  0.41072  0.16075  1.0000
  C   C56       1.0  0.58835  0.11868  0.17245  1.0000
  C   C57       1.0  0.53428  0.44672  0.21277  1.0000
  C   C58       1.0  0.55242  0.09019  0.22070  1.0000
  C   C59       1.0  0.50553  0.45336  0.26868  1.0000
  C   C60       1.0  0.54541  0.05384  0.26763  1.0000
  C   C61       1.0  0.47501  0.34242  0.07904  1.0000
  C   C62       1.0  0.65627  0.13585  0.09033  1.0000
  C   C63       1.0  0.86987  0.52437  0.05299  1.0000
  C   C64       1.0  0.69908  0.23240  0.18963  1.0000
  C   C65       1.0  0.69728  0.26527  0.20973  1.0000
  C   C66       1.0  0.66665  0.26783  0.14083  1.0000
  C   C67       1.0  0.63804  0.23689  0.04962  1.0000
  C   C68       1.0  0.64045  0.20432  0.02399  1.0000
  C   C69       1.0  0.67059  0.20130  0.09668  1.0000
  C   C70       1.0  0.63467  0.33638  0.15898  1.0000
  C   C71       1.0  0.66647  0.30379  0.15301  1.0000
  C   C72       1.0  0.69938  0.36863  0.14700  1.0000
  C   C73       1.0  0.60516  0.56364  0.47138  1.0000
  C   C74       1.0  0.43533  0.04123  0.46079  1.0000
  C   C75       1.0  0.96205  0.39813  0.45004  1.0000
  C   C76       1.0  0.58184  0.52637  0.42967  1.0000
  C   C77       1.0  0.47267  0.05553  0.42564  1.0000
  C   C78       1.0  0.94924  0.42228  0.41013  1.0000
  C   C79       1.0  0.43503  0.50100  0.13640  1.0000
  C   C80       1.0  0.49757  0.93633  0.12096  1.0000
  C   C81       1.0  0.07332  0.56675  0.12590  1.0000
  C   C82       1.0  0.45814  0.53790  0.18371  1.0000
  C   C83       1.0  0.46084  0.92186  0.16681  1.0000
  C   C84       1.0  0.08616  0.54321  0.17623  1.0000
  C   C85       1.0  0.37033  0.67873  0.90429  1.0000
  C   C86       1.0  0.32252  0.69233  0.89584  1.0000
  C   C87       1.0  0.30856  0.63064  0.90470  1.0000
  C   C88       1.0  0.42096  0.67059  0.77907  1.0000
  C   C89       1.0  0.45869  0.68434  0.73823  1.0000
  C   C90       1.0  0.48782  0.71898  0.80719  1.0000
  C   C91       1.0  0.47768  0.73980  0.91412  1.0000
  C   C92       1.0  0.43977  0.72655  0.95061  1.0000
  C   C93       1.0  0.41095  0.69173  0.88358  1.0000
  C   C94       1.0  0.54674  0.72141  0.74279  1.0000
  C   C95       1.0  0.27773  0.82427  0.69919  1.0000
  C   C96       1.0  0.17277  0.45167  0.74872  1.0000
  C   C97       1.0  0.51027  0.65473  0.86959  1.0000
  C   C98       1.0  0.34267  0.85746  0.84825  1.0000
  C   C99       1.0  0.50586  0.61870  0.88384  1.0000
  C   C100      1.0  0.37792  0.89014  0.86987  1.0000
  C   C101      1.0  0.53276  0.61044  0.81779  1.0000
  C   C102      1.0  0.38614  0.92476  0.79422  1.0000
  C   C103      1.0  0.56544  0.64013  0.74434  1.0000
  C   C104      1.0  0.35706  0.92614  0.70300  1.0000
  C   C105      1.0  0.56938  0.67601  0.72691  1.0000
  C   C106      1.0  0.32189  0.89314  0.67912  1.0000
  C   C107      1.0  0.54139  0.68377  0.78400  1.0000
  C   C108      1.0  0.31432  0.85795  0.74656  1.0000
  C   C109      1.0  0.55256  0.56108  0.86673  1.0000
  C   C110      1.0  0.43650  0.99433  0.85150  1.0000
  C   C111      1.0  0.00506  0.44371  0.85797  1.0000
  C   C112      1.0  0.54735  0.52380  0.85983  1.0000
  C   C113      1.0  0.47446  0.02569  0.85637  1.0000
  C   C114      1.0  0.97377  0.45007  0.85123  1.0000
  C   C115      1.0  0.51284  0.49263  0.79696  1.0000
  C   C116      1.0  0.50509  0.02167  0.80002  1.0000
  C   C117      1.0  0.97801  0.48449  0.78538  1.0000
  C   C118      1.0  0.48594  0.50299  0.75000  1.0000
  C   C119      1.0  0.49366  0.98447  0.74778  1.0000
  C   C120      1.0  0.01540  0.51025  0.73735  1.0000
  C   C121      1.0  0.49106  0.54012  0.75897  1.0000
  C   C122      1.0  0.45602  0.95301  0.74939  1.0000
  C   C123      1.0  0.04665  0.50407  0.74894  1.0000
  C   C124      1.0  0.52574  0.57123  0.81864  1.0000
  C   C125      1.0  0.42539  0.95728  0.80147  1.0000
  C   C126      1.0  0.04205  0.46941  0.80960  1.0000
  C   C127      1.0  0.46889  0.42209  0.77410  1.0000
  C   C128      1.0  0.46146  0.38679  0.71687  1.0000
  C   C129      1.0  0.49050  0.38067  0.65965  1.0000
  C   C130      1.0  0.52802  0.41171  0.66833  1.0000
  C   C131      1.0  0.53533  0.44756  0.71888  1.0000
  C   C132      1.0  0.50595  0.45395  0.76798  1.0000
  C   C133      1.0  0.47732  0.34273  0.58532  1.0000
  C   C134      1.0  0.65562  0.13024  0.58930  1.0000
  C   C135      1.0  0.86506  0.52026  0.55095  1.0000
  C   C136      1.0  0.77028  0.46843  0.67431  1.0000
  C   C137      1.0  0.73768  0.43392  0.70602  1.0000
  C   C138      1.0  0.73366  0.39965  0.64522  1.0000
  C   C139      1.0  0.76277  0.40096  0.54910  1.0000
  C   C140      1.0  0.79488  0.43557  0.51162  1.0000
  C   C141      1.0  0.79962  0.46984  0.57741  1.0000
  C   C142      1.0  0.63359  0.32940  0.67200  1.0000
  C   C143      1.0  0.66672  0.29810  0.66310  1.0000
  C   C144      1.0  0.69832  0.36298  0.66662  1.0000
  C   C145      1.0  0.60514  0.56488  0.97005  1.0000
  C   C146      1.0  0.43430  0.04342  0.95571  1.0000
  C   C147      1.0  0.95593  0.39266  0.96329  1.0000
  C   C148      1.0  0.58207  0.52754  0.92863  1.0000
  C   C149      1.0  0.47173  0.05684  0.92618  1.0000
  C   C150      1.0  0.94252  0.41626  0.92147  1.0000
  C   C151      1.0  0.43467  0.50038  0.63535  1.0000
  C   C152      1.0  0.49459  0.93533  0.63367  1.0000
  C   C153      1.0  0.06495  0.55990  0.62292  1.0000
  C   C154      1.0  0.45729  0.53727  0.68380  1.0000
  C   C155      1.0  0.45780  0.92167  0.67619  1.0000
  C   C156      1.0  0.07827  0.53691  0.67541  1.0000
  N   N1        1.0  0.52458  0.73518  0.25297  1.0000
  N   N2        1.0  0.26317  0.78891  0.23129  1.0000
  N   N3        1.0  0.21326  0.47236  0.29258  1.0000
  N   N4        1.0  0.48992  0.32156  0.05560  1.0000
  N   N5        1.0  0.67737  0.17166  0.06310  1.0000
  N   N6        1.0  0.83379  0.50945  0.03028  1.0000
  N   N7        1.0  0.29502  0.65438  0.40299  1.0000
  N   N8        1.0  0.34634  0.64185  0.42586  1.0000
  N   N9        1.0  0.35940  0.70592  0.39991  1.0000
  N   N10       1.0  0.66715  0.37039  0.15352  1.0000
  N   N11       1.0  0.63272  0.30222  0.16136  1.0000
  N   N12       1.0  0.70056  0.33613  0.14716  1.0000
  N   N13       1.0  0.52562  0.73646  0.75714  1.0000
  N   N14       1.0  0.26400  0.78818  0.71772  1.0000
  N   N15       1.0  0.20892  0.47377  0.77080  1.0000
  N   N16       1.0  0.49158  0.32109  0.56751  1.0000
  N   N17       1.0  0.67726  0.16576  0.55748  1.0000
  N   N18       1.0  0.82895  0.50564  0.53080  1.0000
  N   N19       1.0  0.29549  0.65516  0.89981  1.0000
  N   N20       1.0  0.34569  0.64087  0.90834  1.0000
  N   N21       1.0  0.36031  0.70571  0.90182  1.0000
  N   N22       1.0  0.66568  0.36374  0.67456  1.0000
  N   N23       1.0  0.63241  0.29563  0.66701  1.0000
  N   N24       1.0  0.70048  0.33095  0.66452  1.0000
  O   O1        1.0  0.58869  0.58544  0.43376  1.0000
  O   O2        1.0  0.41341  0.00319  0.41662  1.0000
  O   O3        1.0  0.99992  0.41317  0.41039  1.0000
  O   O4        1.0  0.45098  0.47878  0.17454  1.0000
  O   O5        1.0  0.51961  0.97466  0.15995  1.0000
  O   O6        1.0  0.03496  0.55121  0.15563  1.0000
  O   O7        1.0  0.58821  0.58631  0.93377  1.0000
  O   O8        1.0  0.41183  0.00545  0.91074  1.0000
  O   O9        1.0  0.99395  0.40834  0.92589  1.0000
  O   O10       1.0  0.45108  0.47861  0.67389  1.0000
  O   O11       1.0  0.51733  0.97345  0.67517  1.0000
  O   O12       1.0  0.02689  0.54474  0.65868  1.0000
  C  Sn1       1.0  0.64627  0.21147  0.47306  1.0000
  C   C157      1.0  0.67290  0.20258  0.53853  1.0000
  C  Sn2       1.0  0.69558  0.22235  0.67788  1.0000
  C  Sn3       1.0  0.69154  0.25159  0.75344  1.0000
  C   C158      1.0  0.66492  0.26046  0.68799  1.0000
  C  Sn4       1.0  0.64223  0.24072  0.54861  1.0000
  O  Te1       1.0  0.62390  0.19134  0.33367  1.0000
  O  Te2       1.0  0.72202  0.21296  0.74106  1.0000
  O  Te3       1.0  0.71394  0.27172  0.89293  1.0000
  O  Te4       1.0  0.61580  0.25009  0.48546  1.0000
  Mg  Mg1       1.0  0.74593  0.24849  0.93311  1.0000
  Mg  Mg2       1.0  0.59186  0.21456  0.29348  1.0000
  C  Sn5       1.0  0.23060  0.54995  0.72213  1.0000
  C   C159      1.0  0.23369  0.51860  0.77156  1.0000
  C  Sn6       1.0  0.25918  0.52226  0.89991  1.0000
  C  Sn7       1.0  0.28204  0.55797  0.98062  1.0000
  C   C160      1.0  0.27894  0.58929  0.93121  1.0000
  C  Sn8       1.0  0.25346  0.58566  0.80285  1.0000
  O  Te5       1.0  0.20493  0.54564  0.59354  1.0000
  O  Te6       1.0  0.26177  0.49052  0.94711  1.0000
  O  Te7       1.0  0.30340  0.56083  0.10931  1.0000
  O  Te8       1.0  0.25085  0.61737  0.75567  1.0000
  Mg  Mg3       1.0  0.29662  0.50925  0.12899  1.0000
  Mg  Mg4       1.0  0.21169  0.59724  0.57387  1.0000
  C  Sn9       1.0  0.07464  0.42208  0.75224  1.0000
  C   C161      1.0  0.07088  0.44982  0.83843  1.0000
  C  Sn10      1.0  0.10309  0.48351  0.89206  1.0000
  C  Sn11      1.0  0.13984  0.48960  0.85876  1.0000
  C   C162      1.0  0.14360  0.46188  0.77259  1.0000
  C  Sn12      1.0  0.11139  0.42818  0.71894  1.0000
  O  Te9       1.0  0.04204  0.38863  0.69979  1.0000
  O  Te10      1.0  0.09861  0.51081  0.97805  1.0000
  O  Te11      1.0  0.17245  0.52309  0.91130  1.0000
  O  Te12      1.0  0.11587  0.40089  0.63297  1.0000
  Mg  Mg5       1.0  0.14733  0.55035  0.02391  1.0000
  Mg  Mg6       1.0  0.06285  0.35993  0.58698  1.0000
  C  Sn13      1.0  0.37680  0.87769  0.32183  1.0000
  C   C163      1.0  0.38906  0.91468  0.26640  1.0000
  C  Sn14      1.0  0.36265  0.92537  0.21774  1.0000
  C  Sn15      1.0  0.32317  0.89854  0.22471  1.0000
  C   C164      1.0  0.31093  0.86159  0.28014  1.0000
  C  Sn16      1.0  0.33732  0.85087  0.32881  1.0000
  O  Te13      1.0  0.40370  0.86763  0.36988  1.0000
  O  Te14      1.0  0.37559  0.96250  0.16271  1.0000
  O  Te15      1.0  0.29627  0.90864  0.17660  1.0000
  O  Te16      1.0  0.32440  0.81376  0.38384  1.0000
  Mg  Mg7       1.0  0.32792  0.96260  0.11068  1.0000
  Mg  Mg8       1.0  0.37204  0.81363  0.43597  1.0000
  C  Sn17      1.0  0.53859  0.30818  0.25199  1.0000
  C   C165      1.0  0.52991  0.33121  0.15216  1.0000
  C  Sn18      1.0  0.55560  0.35535  0.03310  1.0000
  C  Sn19      1.0  0.59070  0.35649  0.01332  1.0000
  C   C166      1.0  0.59936  0.33347  0.11309  1.0000
  C  Sn20      1.0  0.57369  0.30932  0.23221  1.0000
  O  Te17      1.0  0.51248  0.28426  0.37022  1.0000
  O  Te18      1.0  0.55061  0.37954  0.93480  1.0000
  O  Te19      1.0  0.62114  0.38186  0.89498  1.0000
  O  Te20      1.0  0.58298  0.28656  0.33045  1.0000
  Mg  Mg9       1.0  0.59551  0.40743  0.79079  1.0000
  Mg  Mg10      1.0  0.53810  0.25865  0.47443  1.0000
  C  Sn21      1.0  0.60098  0.06027  0.70630  1.0000
  C   C167      1.0  0.61322  0.09635  0.63938  1.0000
  C  Sn22      1.0  0.59168  0.11398  0.65987  1.0000
  C  Sn23      1.0  0.55720  0.09515  0.74919  1.0000
  C   C168      1.0  0.54499  0.05910  0.81606  1.0000
  C  Sn24      1.0  0.56651  0.04145  0.79562  1.0000
  O  Te21      1.0  0.62297  0.04318  0.68430  1.0000
  O  Te22      1.0  0.60448  0.15005  0.59179  1.0000
  O  Te23      1.0  0.53521  0.11227  0.77113  1.0000
  O  Te24      1.0  0.55372  0.00539  0.86366  1.0000
  Mg  Mg11      1.0  0.56459  0.16162  0.65515  1.0000
  Mg  Mg12      1.0  0.09763  0.99381  0.80045  1.0000
  C  Sn25      1.0  0.57497  0.65170  0.26760  1.0000
  C   C169      1.0  0.54637  0.61973  0.34821  1.0000
  C  Sn26      1.0  0.51229  0.61792  0.38892  1.0000
  C  Sn27      1.0  0.50665  0.64871  0.34811  1.0000
  C   C170      1.0  0.53523  0.68066  0.26753  1.0000
  C  Sn28      1.0  0.56933  0.68249  0.22680  1.0000
  O  Te25      1.0  0.60881  0.65289  0.22809  1.0000
  O  Te26      1.0  0.48412  0.58566  0.46955  1.0000
  O  Te27      1.0  0.47276  0.64750  0.38771  1.0000
  O  Te28      1.0  0.59748  0.71472  0.14619  1.0000
  Mg  Mg13      1.0  0.44291  0.59742  0.49738  1.0000
  Mg  Mg14      1.0  0.63869  0.70299  0.11823  1.0000
  C  Sn29      1.0  0.26344  0.70951  0.87712  1.0000
  C   C171      1.0  0.29805  0.71256  0.83527  1.0000
  C  Sn30      1.0  0.32761  0.74673  0.77352  1.0000
  C  Sn31      1.0  0.32248  0.77852  0.75328  1.0000
  C   C172      1.0  0.28790  0.77546  0.79514  1.0000
  C  Sn32      1.0  0.25832  0.74130  0.85688  1.0000
  O  Te29      1.0  0.23428  0.67507  0.93865  1.0000
  O  Te30      1.0  0.36194  0.74909  0.73248  1.0000
  O  Te31      1.0  0.35168  0.81297  0.69169  1.0000
  O  Te32      1.0  0.22401  0.73893  0.89793  1.0000
  Mg  Mg15      1.0  0.39318  0.80212  0.65340  1.0000
  Mg  Mg16      1.0  0.19275  0.68592  0.97710  1.0000
  C  Sn33      1.0  0.56887  0.35369  0.49956  1.0000
  C   C173      1.0  0.53281  0.32637  0.55411  1.0000
  C  Sn34      1.0  0.52900  0.30161  0.68412  1.0000
  C  Sn35      1.0  0.56191  0.30422  0.76130  1.0000
  C   C174      1.0  0.59793  0.33153  0.70676  1.0000
  C  Sn36      1.0  0.60177  0.35630  0.57673  1.0000
  O  Te33      1.0  0.57201  0.37815  0.36938  1.0000
  O  Te34      1.0  0.49266  0.27452  0.73646  1.0000
  O  Te35      1.0  0.55874  0.27973  0.89156  1.0000
  O  Te36      1.0  0.63809  0.38338  0.52441  1.0000
  Mg  Mg17      1.0  0.50309  0.24761  0.91864  1.0000
  Mg  Mg18      1.0  0.62769  0.41032  0.34231  1.0000
  C  Sn37      1.0  0.93758  0.53898  0.65589  1.0000
  C   C175      1.0  0.90068  0.51333  0.59845  1.0000
  C  Sn38      1.0  0.88368  0.47469  0.63714  1.0000
  C  Sn39      1.0  0.90399  0.46141  0.73538  1.0000
  C   C176      1.0  0.94087  0.48706  0.79278  1.0000
  C  Sn40      1.0  0.95789  0.52570  0.75413  1.0000
  O  Te37      1.0  0.95401  0.57748  0.61571  1.0000
  O  Te38      1.0  0.84676  0.44958  0.57824  1.0000
  O  Te39      1.0  0.88753  0.42287  0.77553  1.0000
  O  Te40      1.0  0.99478  0.55080  0.81299  1.0000
  Mg  Mg19      1.0  0.83658  0.39979  0.66626  1.0000
  Mg  Mg20      1.0  0.00498  0.60060  0.72513  1.0000
  C  Sn41      1.0  0.77835  0.40962  0.06889  1.0000
  C   C177      1.0  0.74680  0.40410  0.15856  1.0000
  C  Sn42      1.0  0.74159  0.43478  0.19331  1.0000
  C  Sn43      1.0  0.76847  0.47175  0.13717  1.0000
  C   C178      1.0  0.79999  0.47725  0.04753  1.0000
  C  Sn44      1.0  0.80522  0.44659  0.01274  1.0000
  O  Te41      1.0  0.78298  0.37854  0.03557  1.0000
  O  Te42      1.0  0.70983  0.42856  0.28323  1.0000
  O  Te43      1.0  0.76381  0.50284  0.17057  1.0000
  O  Te44      1.0  0.84127  0.45422  0.92286  1.0000
  Mg  Mg21      1.0  0.71598  0.47995  0.29742  1.0000
  Mg  Mg22      1.0  0.83515  0.40285  0.90853  1.0000
  C  Sn45      1.0  0.91116  0.46676  0.14342  1.0000
  C   C179      1.0  0.94895  0.49284  0.18763  1.0000
  C  Sn46      1.0  0.96001  0.53056  0.22576  1.0000
  C  Sn47      1.0  0.93274  0.54247  0.21968  1.0000
  C   C180      1.0  0.89498  0.51640  0.17552  1.0000
  C  Sn48      1.0  0.88389  0.47867  0.13734  1.0000
  O  Te45      1.0  0.90073  0.42919  0.10580  1.0000
  O  Te46      1.0  0.99795  0.55611  0.26957  1.0000
  O  Te47      1.0  0.94320  0.58008  0.25734  1.0000
  O  Te48      1.0  0.84597  0.45313  0.09358  1.0000
  Mg  Mg23      1.0  0.99827  0.60425  0.31017  1.0000
  Mg  Mg24      1.0  0.84562  0.40498  0.05304  1.0000
