data_image0
_chemical_formula_structural       H36C84N24O12SnCSn2CSnTe4Mg2SnCSn2CSnTe4Mg2SnCSn2CSnTe4Mg2SnCSn2CSnTe4Mg2SnCSn2CSnTe4Mg2SnCSn2CSnTe4Mg2SnCSn2CSnTe4Mg2SnCSn2CSnTe4Mg2SnCSn2CSnTe4Mg2SnCSn2CSnTe4Mg2SnCSn2CSnTe4Mg2SnCSn2CSnTe4Mg2SnCSn2CSnTe4Mg2SnCSn2CSnTe4Mg2SnCSn2CSnTe4Mg2SnCSn2CSnTe4Mg2SnCSn2CSnTe4Mg2SnCSn2CSnTe4Mg2SnCSn2CSnTe4Mg2SnCSn2CSnTe4Mg2SnCSn2CSnTe4Mg2SnCSn2CSnTe4Mg2SnCSn2CSnTe4Mg2SnCSn2CSnTe4Mg2
_chemical_formula_sum              "H36 C132 N24 O12 Sn96 Te96 Mg48"
_cell_length_a       40.7268
_cell_length_b       40.6838
_cell_length_c       7.96539
_cell_angle_alpha    89.7784
_cell_angle_beta     91.0552
_cell_angle_gamma    120.302

_symmetry_space_group_name_H-M    'P1'
_space_group_IT_number       1

loop_
  _space_group_symop_operation_xyz
  'x, y, z'

loop_
  _atom_site_type_symbol
  _atom_site_label
  _atom_site_symmetry_multiplicity
  _atom_site_fract_x
  _atom_site_fract_y
  _atom_site_fract_z
  _atom_site_occupancy
  H   H1        1.0  0.57255  0.73872  0.17258  1.0000
  H   H2        1.0  0.25844  0.83352  0.15778  1.0000
  H   H3        1.0  0.16817  0.42231  0.22333  1.0000
  H   H4        1.0  0.44768  0.32968  0.54016  1.0000
  H   H5        1.0  0.66738  0.11237  0.55158  1.0000
  H   H6        1.0  0.88180  0.54904  0.49938  1.0000
  H   H7        1.0  0.63331  0.58050  0.02618  1.0000
  H   H8        1.0  0.41913  0.05634  0.00771  1.0000
  H   H9        1.0  0.94282  0.36475  0.01933  1.0000
  H   H10       1.0  0.58821  0.50377  0.44748  1.0000
  H   H11       1.0  0.49543  0.08418  0.45301  1.0000
  H   H12       1.0  0.92087  0.41717  0.43157  1.0000
  H   H13       1.0  0.40739  0.48608  0.07501  1.0000
  H   H14       1.0  0.51239  0.92420  0.05856  1.0000
  H   H15       1.0  0.08701  0.59449  0.06807  1.0000
  H   H16       1.0  0.45213  0.56080  0.16868  1.0000
  H   H17       1.0  0.43814  0.89262  0.15160  1.0000
  H   H18       1.0  0.11519  0.54920  0.17002  1.0000
  H   H19       1.0  0.57433  0.74021  0.68558  1.0000
  H   H20       1.0  0.25841  0.83153  0.63266  1.0000
  H   H21       1.0  0.16486  0.42432  0.68883  1.0000
  H   H22       1.0  0.44530  0.32938  0.03522  1.0000
  H   H23       1.0  0.66910  0.11899  0.05194  1.0000
  H   H24       1.0  0.88633  0.55373  0.00736  1.0000
  H   H25       1.0  0.63328  0.57915  0.52817  1.0000
  H   H26       1.0  0.41989  0.05336  0.51728  1.0000
  H   H27       1.0  0.94868  0.37021  0.50661  1.0000
  H   H28       1.0  0.58895  0.50530  0.94601  1.0000
  H   H29       1.0  0.49477  0.08541  0.95331  1.0000
  H   H30       1.0  0.91385  0.41038  0.94097  1.0000
  H   H31       1.0  0.40720  0.48523  0.57253  1.0000
  H   H32       1.0  0.50901  0.92261  0.57247  1.0000
  H   H33       1.0  0.07779  0.58667  0.55685  1.0000
  H   H34       1.0  0.45096  0.55994  0.66787  1.0000
  H   H35       1.0  0.43451  0.89281  0.65888  1.0000
  H   H36       1.0  0.10710  0.54252  0.66450  1.0000
  C   C1        1.0  0.37026  0.67966  0.41140  1.0000
  C   C2        1.0  0.32144  0.69175  0.39561  1.0000
  C   C3        1.0  0.30903  0.63066  0.41584  1.0000
  C   C4        1.0  0.54570  0.72018  0.23605  1.0000
  C   C5        1.0  0.27786  0.82519  0.21505  1.0000
  C   C6        1.0  0.17696  0.45088  0.27135  1.0000
  C   C7        1.0  0.55310  0.56053  0.36579  1.0000
  C   C8        1.0  0.43822  0.99310  0.34947  1.0000
  C   C9        1.0  0.01161  0.44885  0.34466  1.0000
  C   C10       1.0  0.54740  0.52308  0.35977  1.0000
  C   C11       1.0  0.47577  0.02503  0.35091  1.0000
  C   C12       1.0  0.98063  0.45567  0.33808  1.0000
  C   C13       1.0  0.51276  0.49221  0.29656  1.0000
  C   C14       1.0  0.50653  0.02189  0.28927  1.0000
  C   C15       1.0  0.98505  0.49013  0.27186  1.0000
  C   C16       1.0  0.48614  0.50290  0.24905  1.0000
  C   C17       1.0  0.49570  0.98488  0.23621  1.0000
  C   C18       1.0  0.02275  0.51591  0.22759  1.0000
  C   C19       1.0  0.49184  0.54028  0.25715  1.0000
  C   C20       1.0  0.45844  0.95279  0.24107  1.0000
  C   C21       1.0  0.05396  0.50963  0.24204  1.0000
  C   C22       1.0  0.52673  0.57110  0.31626  1.0000
  C   C23       1.0  0.42765  0.95629  0.29774  1.0000
  C   C24       1.0  0.04900  0.47461  0.30074  1.0000
  C   C25       1.0  0.47501  0.34242  0.07904  1.0000
  C   C26       1.0  0.65627  0.13585  0.09033  1.0000
  C   C27       1.0  0.86987  0.52437  0.05299  1.0000
  C   C28       1.0  0.63467  0.33638  0.15898  1.0000
  C   C29       1.0  0.66647  0.30379  0.15301  1.0000
  C   C30       1.0  0.69938  0.36863  0.14700  1.0000
  C   C31       1.0  0.60516  0.56364  0.47138  1.0000
  C   C32       1.0  0.43533  0.04123  0.46079  1.0000
  C   C33       1.0  0.96205  0.39813  0.45004  1.0000
  C   C34       1.0  0.58184  0.52637  0.42967  1.0000
  C   C35       1.0  0.47267  0.05553  0.42564  1.0000
  C   C36       1.0  0.94924  0.42228  0.41013  1.0000
  C   C37       1.0  0.43503  0.50100  0.13640  1.0000
  C   C38       1.0  0.49757  0.93633  0.12096  1.0000
  C   C39       1.0  0.07332  0.56675  0.12590  1.0000
  C   C40       1.0  0.45814  0.53790  0.18371  1.0000
  C   C41       1.0  0.46084  0.92186  0.16681  1.0000
  C   C42       1.0  0.08616  0.54321  0.17623  1.0000
  C   C43       1.0  0.37033  0.67873  0.90429  1.0000
  C   C44       1.0  0.32252  0.69233  0.89584  1.0000
  C   C45       1.0  0.30856  0.63064  0.90470  1.0000
  C   C46       1.0  0.54674  0.72141  0.74279  1.0000
  C   C47       1.0  0.27773  0.82427  0.69919  1.0000
  C   C48       1.0  0.17277  0.45167  0.74872  1.0000
  C   C49       1.0  0.55256  0.56108  0.86673  1.0000
  C   C50       1.0  0.43650  0.99433  0.85150  1.0000
  C   C51       1.0  0.00506  0.44371  0.85797  1.0000
  C   C52       1.0  0.54735  0.52380  0.85983  1.0000
  C   C53       1.0  0.47446  0.02569  0.85637  1.0000
  C   C54       1.0  0.97377  0.45007  0.85123  1.0000
  C   C55       1.0  0.51284  0.49263  0.79696  1.0000
  C   C56       1.0  0.50509  0.02167  0.80002  1.0000
  C   C57       1.0  0.97801  0.48449  0.78538  1.0000
  C   C58       1.0  0.48594  0.50299  0.75000  1.0000
  C   C59       1.0  0.49366  0.98447  0.74778  1.0000
  C   C60       1.0  0.01540  0.51025  0.73735  1.0000
  C   C61       1.0  0.49106  0.54012  0.75897  1.0000
  C   C62       1.0  0.45602  0.95301  0.74939  1.0000
  C   C63       1.0  0.04665  0.50407  0.74894  1.0000
  C   C64       1.0  0.52574  0.57123  0.81864  1.0000
  C   C65       1.0  0.42539  0.95728  0.80147  1.0000
  C   C66       1.0  0.04205  0.46941  0.80960  1.0000
  C   C67       1.0  0.47732  0.34273  0.58532  1.0000
  C   C68       1.0  0.65562  0.13024  0.58930  1.0000
  C   C69       1.0  0.86506  0.52026  0.55095  1.0000
  C   C70       1.0  0.63359  0.32940  0.67200  1.0000
  C   C71       1.0  0.66672  0.29810  0.66310  1.0000
  C   C72       1.0  0.69832  0.36298  0.66662  1.0000
  C   C73       1.0  0.60514  0.56488  0.97005  1.0000
  C   C74       1.0  0.43430  0.04342  0.95571  1.0000
  C   C75       1.0  0.95593  0.39266  0.96329  1.0000
  C   C76       1.0  0.58207  0.52754  0.92863  1.0000
  C   C77       1.0  0.47173  0.05684  0.92618  1.0000
  C   C78       1.0  0.94252  0.41626  0.92147  1.0000
  C   C79       1.0  0.43467  0.50038  0.63535  1.0000
  C   C80       1.0  0.49459  0.93533  0.63367  1.0000
  C   C81       1.0  0.06495  0.55990  0.62292  1.0000
  C   C82       1.0  0.45729  0.53727  0.68380  1.0000
  C   C83       1.0  0.45780  0.92167  0.67619  1.0000
  C   C84       1.0  0.07827  0.53691  0.67541  1.0000
  N   N1        1.0  0.52458  0.73518  0.25297  1.0000
  N   N2        1.0  0.26317  0.78891  0.23129  1.0000
  N   N3        1.0  0.21326  0.47236  0.29258  1.0000
  N   N4        1.0  0.48992  0.32156  0.05560  1.0000
  N   N5        1.0  0.67737  0.17166  0.06310  1.0000
  N   N6        1.0  0.83379  0.50945  0.03028  1.0000
  N   N7        1.0  0.29502  0.65438  0.40299  1.0000
  N   N8        1.0  0.34634  0.64185  0.42586  1.0000
  N   N9        1.0  0.35940  0.70592  0.39991  1.0000
  N   N10       1.0  0.66715  0.37039  0.15352  1.0000
  N   N11       1.0  0.63272  0.30222  0.16136  1.0000
  N   N12       1.0  0.70056  0.33613  0.14716  1.0000
  N   N13       1.0  0.52562  0.73646  0.75714  1.0000
  N   N14       1.0  0.26400  0.78818  0.71772  1.0000
  N   N15       1.0  0.20892  0.47377  0.77080  1.0000
  N   N16       1.0  0.49158  0.32109  0.56751  1.0000
  N   N17       1.0  0.67726  0.16576  0.55748  1.0000
  N   N18       1.0  0.82895  0.50564  0.53080  1.0000
  N   N19       1.0  0.29549  0.65516  0.89981  1.0000
  N   N20       1.0  0.34569  0.64087  0.90834  1.0000
  N   N21       1.0  0.36031  0.70571  0.90182  1.0000
  N   N22       1.0  0.66568  0.36374  0.67456  1.0000
  N   N23       1.0  0.63241  0.29563  0.66701  1.0000
  N   N24       1.0  0.70048  0.33095  0.66452  1.0000
  O   O1        1.0  0.58869  0.58544  0.43376  1.0000
  O   O2        1.0  0.41341  0.00319  0.41662  1.0000
  O   O3        1.0  0.99992  0.41317  0.41039  1.0000
  O   O4        1.0  0.45098  0.47878  0.17454  1.0000
  O   O5        1.0  0.51961  0.97466  0.15995  1.0000
  O   O6        1.0  0.03496  0.55121  0.15563  1.0000
  O   O7        1.0  0.58821  0.58631  0.93377  1.0000
  O   O8        1.0  0.41183  0.00545  0.91074  1.0000
  O   O9        1.0  0.99395  0.40834  0.92589  1.0000
  O   O10       1.0  0.45108  0.47861  0.67389  1.0000
  O   O11       1.0  0.51733  0.97345  0.67517  1.0000
  O   O12       1.0  0.02689  0.54474  0.65868  1.0000
  C  Sn1       1.0  0.44738  0.68123  0.21648  1.0000
  C   C85       1.0  0.47964  0.71611  0.25756  1.0000
  C  Sn2       1.0  0.47841  0.73899  0.38472  1.0000
  C  Sn3       1.0  0.44422  0.72674  0.47276  1.0000
  C   C86       1.0  0.41199  0.69189  0.43169  1.0000
  C  Sn4       1.0  0.41319  0.66899  0.30452  1.0000
  O  Te1       1.0  0.44926  0.65882  0.08891  1.0000
  O  Te2       1.0  0.51102  0.77374  0.42350  1.0000
  O  Te3       1.0  0.44236  0.74919  0.60040  1.0000
  O  Te4       1.0  0.38061  0.63425  0.26575  1.0000
  Mg  Mg1       1.0  0.49429  0.79421  0.60732  1.0000
  Mg  Mg2       1.0  0.39731  0.61376  0.08202  1.0000
  C  Sn5       1.0  0.33413  0.76421  0.29184  1.0000
  C   C87       1.0  0.31652  0.73141  0.39000  1.0000
  C  Sn6       1.0  0.27778  0.71411  0.42388  1.0000
  C  Sn7       1.0  0.25618  0.72990  0.35819  1.0000
  C   C88       1.0  0.27378  0.76267  0.26008  1.0000
  C  Sn8       1.0  0.31253  0.78000  0.22615  1.0000
  O  Te5       1.0  0.37290  0.78103  0.25957  1.0000
  O  Te6       1.0  0.26081  0.68134  0.52238  1.0000
  O  Te7       1.0  0.21738  0.71305  0.39056  1.0000
  O  Te8       1.0  0.32949  0.81274  0.12769  1.0000
  Mg  Mg3       1.0  0.20716  0.66879  0.53130  1.0000
  Mg  Mg4       1.0  0.38314  0.82530  0.11862  1.0000
  C  Sn9       1.0  0.23727  0.56849  0.31211  1.0000
  C   C89       1.0  0.26903  0.58566  0.42007  1.0000
  C  Sn10      1.0  0.28624  0.56533  0.47688  1.0000
  C  Sn11      1.0  0.27141  0.52703  0.42462  1.0000
  C   C90       1.0  0.23967  0.50988  0.31671  1.0000
  C  Sn12      1.0  0.22243  0.53019  0.25985  1.0000
  O  Te9       1.0  0.22052  0.58936  0.25688  1.0000
  O  Te10      1.0  0.31797  0.58310  0.58480  1.0000
  O  Te11      1.0  0.28819  0.50616  0.47996  1.0000
  O  Te12      1.0  0.19073  0.51244  0.15198  1.0000
  Mg  Mg5       1.0  0.33085  0.54285  0.62577  1.0000
  Mg  Mg6       1.0  0.17784  0.55267  0.11087  1.0000
  C  Sn13      1.0  0.57497  0.65170  0.26760  1.0000
  C   C91       1.0  0.54637  0.61973  0.34821  1.0000
  C  Sn14      1.0  0.51229  0.61792  0.38892  1.0000
  C  Sn15      1.0  0.50665  0.64871  0.34811  1.0000
  C   C92       1.0  0.53523  0.68066  0.26753  1.0000
  C  Sn16      1.0  0.56933  0.68249  0.22680  1.0000
  O  Te13      1.0  0.60881  0.65289  0.22809  1.0000
  O  Te14      1.0  0.48412  0.58566  0.46955  1.0000
  O  Te15      1.0  0.47276  0.64750  0.38771  1.0000
  O  Te16      1.0  0.59748  0.71472  0.14619  1.0000
  Mg  Mg7       1.0  0.44291  0.59742  0.49738  1.0000
  Mg  Mg8       1.0  0.63869  0.70299  0.11823  1.0000
  C  Sn17      1.0  0.33288  0.89972  0.15044  1.0000
  C   C93       1.0  0.32027  0.86303  0.21075  1.0000
  C  Sn18      1.0  0.34125  0.85677  0.33443  1.0000
  C  Sn19      1.0  0.37553  0.88785  0.39927  1.0000
  C   C94       1.0  0.38812  0.92451  0.33899  1.0000
  C  Sn20      1.0  0.36717  0.93079  0.21528  1.0000
  O  Te17      1.0  0.31146  0.90531  0.02676  1.0000
  O  Te18      1.0  0.32807  0.81983  0.39271  1.0000
  O  Te19      1.0  0.39695  0.88222  0.52304  1.0000
  O  Te20      1.0  0.38032  0.96771  0.15703  1.0000
  Mg  Mg9       1.0  0.36724  0.82668  0.56218  1.0000
  Mg  Mg10      1.0  0.34549  0.96232  0.98763  1.0000
  C  Sn21      1.0  0.13848  0.48611  0.43116  1.0000
  C   C95       1.0  0.14103  0.45643  0.35679  1.0000
  C  Sn22      1.0  0.11328  0.43204  0.24089  1.0000
  C  Sn23      1.0  0.08235  0.43742  0.19835  1.0000
  C   C96       1.0  0.07982  0.46708  0.27268  1.0000
  C  Sn24      1.0  0.10755  0.49149  0.38862  1.0000
  O  Te21      1.0  0.16655  0.51015  0.54669  1.0000
  O  Te22      1.0  0.11643  0.40257  0.16824  1.0000
  O  Te23      1.0  0.05427  0.41334  0.08272  1.0000
  O  Te24      1.0  0.10441  0.52095  0.46123  1.0000
  Mg  Mg11      1.0  0.07108  0.37731  0.01760  1.0000
  Mg  Mg12      1.0  0.14976  0.54623  0.61180  1.0000
  C  Sn25      1.0  0.53317  0.44221  0.15212  1.0000
  C   C97       1.0  0.50846  0.45330  0.21594  1.0000
  C  Sn26      1.0  0.47270  0.42605  0.27340  1.0000
  C  Sn27      1.0  0.46140  0.38690  0.26703  1.0000
  C   C98       1.0  0.48610  0.37582  0.20327  1.0000
  C  Sn28      1.0  0.52187  0.40306  0.14575  1.0000
  O  Te25      1.0  0.56879  0.46994  0.09538  1.0000
  O  Te26      1.0  0.44849  0.43783  0.33662  1.0000
  O  Te27      1.0  0.42574  0.35916  0.32384  1.0000
  O  Te28      1.0  0.54607  0.39130  0.08259  1.0000
  Mg  Mg13      1.0  0.40284  0.38934  0.39902  1.0000
  Mg  Mg14      1.0  0.59173  0.43976  0.02024  1.0000
  C  Sn29      1.0  0.58827  0.05644  0.31535  1.0000
  C   C99       1.0  0.55484  0.05803  0.32254  1.0000
  C  Sn30      1.0  0.55161  0.08618  0.23558  1.0000
  C  Sn31      1.0  0.58243  0.11330  0.13934  1.0000
  C   C100      1.0  0.61583  0.11170  0.13216  1.0000
  C  Sn32      1.0  0.61909  0.08356  0.21911  1.0000
  O  Te29      1.0  0.59088  0.02805  0.40327  1.0000
  O  Te30      1.0  0.51791  0.08720  0.24472  1.0000
  O  Te31      1.0  0.57980  0.14170  0.05139  1.0000
  O  Te32      1.0  0.65277  0.08253  0.20997  1.0000
  Mg  Mg15      1.0  0.52806  0.13130  0.10283  1.0000
  Mg  Mg16      1.0  0.64264  0.03843  0.35174  1.0000
  C  Sn33      1.0  0.91116  0.46676  0.14342  1.0000
  C   C101      1.0  0.94895  0.49284  0.18763  1.0000
  C  Sn34      1.0  0.96001  0.53056  0.22576  1.0000
  C  Sn35      1.0  0.93274  0.54247  0.21968  1.0000
  C   C102      1.0  0.89498  0.51640  0.17552  1.0000
  C  Sn36      1.0  0.88389  0.47867  0.13734  1.0000
  O  Te33      1.0  0.90073  0.42919  0.10580  1.0000
  O  Te34      1.0  0.99795  0.55611  0.26957  1.0000
  O  Te35      1.0  0.94320  0.58008  0.25734  1.0000
  O  Te36      1.0  0.84597  0.45313  0.09358  1.0000
  Mg  Mg17      1.0  0.99827  0.60425  0.31017  1.0000
  Mg  Mg18      1.0  0.84562  0.40498  0.05304  1.0000
  C  Sn37      1.0  0.57088  0.35657  0.97965  1.0000
  C   C103      1.0  0.53151  0.32798  0.04408  1.0000
  C  Sn38      1.0  0.52994  0.30612  0.18267  1.0000
  C  Sn39      1.0  0.56412  0.31154  0.25851  1.0000
  C   C104      1.0  0.59914  0.33869  0.19411  1.0000
  C  Sn40      1.0  0.60074  0.36056  0.05550  1.0000
  O  Te37      1.0  0.57177  0.37810  0.84102  1.0000
  O  Te38      1.0  0.49456  0.27913  0.24480  1.0000
  O  Te39      1.0  0.56320  0.28997  0.39725  1.0000
  O  Te40      1.0  0.64041  0.38897  0.99339  1.0000
  Mg  Mg19      1.0  0.50812  0.25676  0.43611  1.0000
  Mg  Mg20      1.0  0.62689  0.41136  0.80215  1.0000
  C  Sn41      1.0  0.70626  0.26372  0.17096  1.0000
  C   C105      1.0  0.67856  0.27142  0.10845  1.0000
  C  Sn42      1.0  0.64365  0.24192  0.04803  1.0000
  C  Sn43      1.0  0.63626  0.20391  0.05022  1.0000
  C   C106      1.0  0.66394  0.19623  0.11273  1.0000
  C  Sn44      1.0  0.69886  0.22572  0.17315  1.0000
  O  Te41      1.0  0.74096  0.29367  0.23074  1.0000
  O  Te42      1.0  0.62073  0.25174  0.98610  1.0000
  O  Te43      1.0  0.60584  0.17539  0.99037  1.0000
  O  Te44      1.0  0.72609  0.21733  0.23508  1.0000
  Mg  Mg21      1.0  0.57780  0.20121  0.91858  1.0000
  Mg  Mg22      1.0  0.76903  0.26784  0.30270  1.0000
  C  Sn45      1.0  0.79221  0.43284  0.96739  1.0000
  C   C107      1.0  0.79759  0.46802  0.01974  1.0000
  C  Sn46      1.0  0.77768  0.47309  0.14835  1.0000
  C  Sn47      1.0  0.74744  0.44091  0.22635  1.0000
  C   C108      1.0  0.73776  0.40433  0.17401  1.0000
  C  Sn48      1.0  0.75766  0.39923  0.04538  1.0000
  O  Te45      1.0  0.81251  0.42844  0.83858  1.0000
  O  Te46      1.0  0.78789  0.50997  0.19850  1.0000
  O  Te47      1.0  0.72714  0.44534  0.35524  1.0000
  O  Te48      1.0  0.75178  0.36380  0.99526  1.0000
  Mg  Mg23      1.0  0.75174  0.50129  0.37946  1.0000
  Mg  Mg24      1.0  0.78792  0.37245  0.81438  1.0000
  C  Sn49      1.0  0.44864  0.68467  0.70011  1.0000
  C   C109      1.0  0.48080  0.71802  0.75723  1.0000
  C  Sn50      1.0  0.47877  0.73749  0.89709  1.0000
  C  Sn51      1.0  0.44388  0.72331  0.98169  1.0000
  C   C110      1.0  0.41175  0.68997  0.92459  1.0000
  C  Sn52      1.0  0.41375  0.67049  0.78472  1.0000
  O  Te49      1.0  0.45133  0.66567  0.56005  1.0000
  O  Te50      1.0  0.51130  0.77078  0.95181  1.0000
  O  Te51      1.0  0.43690  0.74091  0.12185  1.0000
  O  Te52      1.0  0.38125  0.63722  0.73001  1.0000
  Mg  Mg25      1.0  0.48903  0.78507  0.14849  1.0000
  Mg  Mg26      1.0  0.39917  0.62146  0.53341  1.0000
  C  Sn53      1.0  0.33587  0.76540  0.79470  1.0000
  C   C111      1.0  0.31818  0.73263  0.89300  1.0000
  C  Sn54      1.0  0.27925  0.71492  0.92350  1.0000
  C  Sn55      1.0  0.25756  0.73027  0.85423  1.0000
  C   C112      1.0  0.27525  0.76302  0.75597  1.0000
  C  Sn56      1.0  0.31418  0.78075  0.72543  1.0000
  O  Te53      1.0  0.37482  0.78263  0.76584  1.0000
  O  Te54      1.0  0.25788  0.68077  0.02221  1.0000
  O  Te55      1.0  0.21858  0.71301  0.88318  1.0000
  O  Te56      1.0  0.33123  0.81345  0.62676  1.0000
  Mg  Mg27      1.0  0.20398  0.66755  0.02569  1.0000
  Mg  Mg28      1.0  0.38512  0.82667  0.62313  1.0000
  C  Sn57      1.0  0.29010  0.55373  0.90467  1.0000
  C   C113      1.0  0.28668  0.58502  0.85776  1.0000
  C  Sn58      1.0  0.25164  0.57991  0.80259  1.0000
  C  Sn59      1.0  0.21933  0.54275  0.79423  1.0000
  C   C114      1.0  0.22276  0.51148  0.84115  1.0000
  C  Sn60      1.0  0.25779  0.51657  0.89631  1.0000
  O  Te57      1.0  0.32541  0.55951  0.95945  1.0000
  O  Te58      1.0  0.24892  0.61163  0.75631  1.0000
  O  Te59      1.0  0.18400  0.53699  0.73939  1.0000
  O  Te60      1.0  0.26051  0.48487  0.94260  1.0000
  Mg  Mg29      1.0  0.19466  0.58916  0.69003  1.0000
  Mg  Mg30      1.0  0.31043  0.50589  0.00898  1.0000
  C  Sn61      1.0  0.49867  0.62246  0.84216  1.0000
  C   C115      1.0  0.52308  0.60997  0.78887  1.0000
  C  Sn62      1.0  0.56046  0.63623  0.74592  1.0000
  C  Sn63      1.0  0.57373  0.67580  0.75655  1.0000
  C   C116      1.0  0.54933  0.68826  0.80984  1.0000
  C  Sn64      1.0  0.51194  0.66202  0.85279  1.0000
  O  Te61      1.0  0.46141  0.59570  0.88447  1.0000
  O  Te62      1.0  0.58433  0.62307  0.69293  1.0000
  O  Te63      1.0  0.61102  0.70256  0.71417  1.0000
  O  Te64      1.0  0.48808  0.67516  0.90577  1.0000
  Mg  Mg31      1.0  0.63270  0.67062  0.64903  1.0000
  Mg  Mg32      1.0  0.43971  0.62765  0.94979  1.0000
  C  Sn65      1.0  0.34484  0.92321  0.73230  1.0000
  C   C117      1.0  0.37653  0.92732  0.82192  1.0000
  C  Sn66      1.0  0.37871  0.89531  0.86824  1.0000
  C  Sn67      1.0  0.34859  0.85842  0.82399  1.0000
  C   C118      1.0  0.31692  0.85433  0.73440  1.0000
  C  Sn68      1.0  0.31472  0.88632  0.68804  1.0000
  O  Te65      1.0  0.34327  0.95560  0.68729  1.0000
  O  Te66      1.0  0.41068  0.90014  0.95786  1.0000
  O  Te67      1.0  0.35019  0.82602  0.86909  1.0000
  O  Te68      1.0  0.28277  0.88151  0.59846  1.0000
  Mg  Mg33      1.0  0.39965  0.84727  0.99051  1.0000
  Mg  Mg34      1.0  0.29379  0.93435  0.56566  1.0000
  C  Sn69      1.0  0.09963  0.43398  0.66252  1.0000
  C   C119      1.0  0.13543  0.45672  0.73786  1.0000
  C  Sn70      1.0  0.14014  0.48121  0.87037  1.0000
  C  Sn71      1.0  0.10839  0.48299  0.92889  1.0000
  C   C120      1.0  0.07261  0.46026  0.85360  1.0000
  C  Sn72      1.0  0.06788  0.43577  0.72105  1.0000
  O  Te69      1.0  0.09558  0.40971  0.53023  1.0000
  O  Te70      1.0  0.17622  0.50367  0.94365  1.0000
  O  Te71      1.0  0.10815  0.50587  0.06129  1.0000
  O  Te72      1.0  0.03183  0.41331  0.64781  1.0000
  Mg  Mg35      1.0  0.16299  0.53082  0.12030  1.0000
  Mg  Mg36      1.0  0.04070  0.38472  0.47121  1.0000
  C  Sn73      1.0  0.46595  0.41062  0.81060  1.0000
  C   C121      1.0  0.50098  0.44448  0.82144  1.0000
  C  Sn74      1.0  0.53226  0.44832  0.73506  1.0000
  C  Sn75      1.0  0.52845  0.41769  0.63569  1.0000
  C   C122      1.0  0.49344  0.38386  0.62487  1.0000
  C  Sn76      1.0  0.46215  0.37999  0.71123  1.0000
  O  Te73      1.0  0.43506  0.40741  0.89802  1.0000
  O  Te74      1.0  0.56698  0.48244  0.74788  1.0000
  O  Te75      1.0  0.55938  0.42092  0.54826  1.0000
  O  Te76      1.0  0.42744  0.34589  0.69843  1.0000
  Mg  Mg37      1.0  0.60076  0.47306  0.60524  1.0000
  Mg  Mg38      1.0  0.39363  0.35525  0.84094  1.0000
  C  Sn77      1.0  0.55690  0.09236  0.66282  1.0000
  C   C123      1.0  0.54456  0.05610  0.72791  1.0000
  C  Sn78      1.0  0.57088  0.04615  0.78674  1.0000
  C  Sn79      1.0  0.61036  0.07300  0.78049  1.0000
  C   C124      1.0  0.62269  0.10923  0.71546  1.0000
  C  Sn80      1.0  0.59638  0.11922  0.65657  1.0000
  O  Te77      1.0  0.53008  0.10170  0.60472  1.0000
  O  Te78      1.0  0.55785  0.00972  0.85120  1.0000
  O  Te79      1.0  0.63718  0.06362  0.83866  1.0000
  O  Te80      1.0  0.60939  0.15562  0.59217  1.0000
  Mg  Mg39      1.0  0.60543  0.01047  0.91521  1.0000
  Mg  Mg40      1.0  0.56184  0.15491  0.52821  1.0000
  C  Sn81      1.0  0.94544  0.53355  0.78413  1.0000
  C   C125      1.0  0.94281  0.49820  0.80559  1.0000
  C  Sn82      1.0  0.91379  0.46582  0.72501  1.0000
  C  Sn83      1.0  0.88684  0.46885  0.62071  1.0000
  C   C126      1.0  0.88948  0.50419  0.59927  1.0000
  C  Sn84      1.0  0.91849  0.53658  0.67983  1.0000
  O  Te81      1.0  0.97468  0.56554  0.86589  1.0000
  O  Te82      1.0  0.91174  0.43078  0.74844  1.0000
  O  Te83      1.0  0.85758  0.43682  0.53893  1.0000
  O  Te84      1.0  0.92055  0.57160  0.65642  1.0000
  Mg  Mg41      1.0  0.86673  0.39541  0.61017  1.0000
  Mg  Mg42      1.0  0.96556  0.60699  0.79455  1.0000
  C  Sn85      1.0  0.56887  0.35369  0.49956  1.0000
  C   C127      1.0  0.53281  0.32637  0.55411  1.0000
  C  Sn86      1.0  0.52900  0.30161  0.68412  1.0000
  C  Sn87      1.0  0.56191  0.30422  0.76130  1.0000
  C   C128      1.0  0.59793  0.33153  0.70676  1.0000
  C  Sn88      1.0  0.60177  0.35630  0.57673  1.0000
  O  Te85      1.0  0.57201  0.37815  0.36938  1.0000
  O  Te86      1.0  0.49266  0.27452  0.73646  1.0000
  O  Te87      1.0  0.55874  0.27973  0.89156  1.0000
  O  Te88      1.0  0.63809  0.38338  0.52441  1.0000
  Mg  Mg43      1.0  0.50309  0.24761  0.91864  1.0000
  Mg  Mg44      1.0  0.62769  0.41032  0.34231  1.0000
  C  Sn89      1.0  0.69397  0.22893  0.74724  1.0000
  C   C129      1.0  0.66991  0.19747  0.64669  1.0000
  C  Sn90      1.0  0.64581  0.19994  0.52666  1.0000
  C  Sn91      1.0  0.64578  0.23457  0.50662  1.0000
  C   C130      1.0  0.66983  0.26601  0.60711  1.0000
  C  Sn92      1.0  0.69393  0.26357  0.72720  1.0000
  O  Te89      1.0  0.71782  0.22582  0.86643  1.0000
  O  Te90      1.0  0.62201  0.16810  0.42764  1.0000
  O  Te91      1.0  0.62189  0.23766  0.38731  1.0000
  O  Te92      1.0  0.71773  0.29538  0.82616  1.0000
  Mg  Mg45      1.0  0.59466  0.18644  0.28241  1.0000
  Mg  Mg46      1.0  0.74510  0.27708  0.97136  1.0000
  C  Sn93      1.0  0.77614  0.40624  0.57415  1.0000
  C   C131      1.0  0.74544  0.39981  0.67278  1.0000
  C  Sn94      1.0  0.73922  0.42968  0.71136  1.0000
  C  Sn95      1.0  0.76418  0.46674  0.65000  1.0000
  C   C132      1.0  0.79485  0.47315  0.55142  1.0000
  C  Sn96      1.0  0.80110  0.44330  0.51280  1.0000
  O  Te93      1.0  0.78181  0.37596  0.53714  1.0000
  O  Te94      1.0  0.70834  0.42255  0.81023  1.0000
  O  Te95      1.0  0.75848  0.49702  0.68710  1.0000
  O  Te96      1.0  0.83195  0.45041  0.41397  1.0000
  Mg  Mg47      1.0  0.71247  0.47306  0.82642  1.0000
  Mg  Mg48      1.0  0.82783  0.39992  0.39762  1.0000
