data_image0
_chemical_formula_structural       H84C156N24O12C2Sn2C2HTe2HMgC2Sn2C2HTe2HMgC2Sn2C2HTe2HMgC2Sn2C2HTe2HMgC2Sn2C2HTe2HMgC2Sn2C2HTe2HMgC2Sn2C2HTe2HMgC2Sn2C2HTe2HMgC2Sn2C2HTe2HMgC2Sn2C2HTe2HMgC2Sn2C2HTe2HMgC2Sn2C2HTe2HMg
_chemical_formula_sum              "H108 C204 N24 O12 Sn24 Te24 Mg12"
_cell_length_a       40.7268
_cell_length_b       40.6838
_cell_length_c       7.96539
_cell_angle_alpha    89.7784
_cell_angle_beta     91.0552
_cell_angle_gamma    120.302

_symmetry_space_group_name_H-M    'P1'
_space_group_IT_number       1

loop_
  _space_group_symop_operation_xyz
  'x, y, z'

loop_
  _atom_site_type_symbol
  _atom_site_label
  _atom_site_symmetry_multiplicity
  _atom_site_fract_x
  _atom_site_fract_y
  _atom_site_fract_z
  _atom_site_occupancy
  H   H1        1.0  0.39764  0.64143  0.25657  1.0000
  H   H2        1.0  0.35638  0.75575  0.21908  1.0000
  H   H3        1.0  0.46446  0.66465  0.17626  1.0000
  H   H4        1.0  0.33192  0.79865  0.13850  1.0000
  H   H5        1.0  0.50024  0.76945  0.44203  1.0000
  H   H6        1.0  0.23184  0.73093  0.42700  1.0000
  H   H7        1.0  0.43209  0.74292  0.03200  1.0000
  H   H8        1.0  0.31469  0.57083  0.01787  1.0000
  H   H9        1.0  0.57255  0.73872  0.17258  1.0000
  H   H10       1.0  0.25844  0.83352  0.15778  1.0000
  H   H11       1.0  0.16817  0.42231  0.22333  1.0000
  H   H12       1.0  0.33930  0.82989  0.40066  1.0000
  H   H13       1.0  0.17326  0.50915  0.44059  1.0000
  H   H14       1.0  0.40301  0.88690  0.42994  1.0000
  H   H15       1.0  0.11793  0.51815  0.44593  1.0000
  H   H16       1.0  0.36434  0.95322  0.16141  1.0000
  H   H17       1.0  0.05049  0.41271  0.17814  1.0000
  H   H18       1.0  0.30063  0.89577  0.12680  1.0000
  H   H19       1.0  0.10646  0.40413  0.16780  1.0000
  H   H20       1.0  0.44620  0.42559  0.33308  1.0000
  H   H21       1.0  0.43097  0.36260  0.22604  1.0000
  H   H22       1.0  0.54884  0.40694  0.11338  1.0000
  H   H23       1.0  0.56309  0.47057  0.20084  1.0000
  H   H24       1.0  0.44768  0.32968  0.54016  1.0000
  H   H25       1.0  0.66738  0.11237  0.55158  1.0000
  H   H26       1.0  0.88180  0.54904  0.49938  1.0000
  H   H27       1.0  0.72235  0.22994  0.24477  1.0000
  H   H28       1.0  0.77821  0.49985  0.21016  1.0000
  H   H29       1.0  0.71943  0.28951  0.27938  1.0000
  H   H30       1.0  0.71776  0.43874  0.25992  1.0000
  H   H31       1.0  0.62204  0.38055  0.51667  1.0000
  H   H32       1.0  0.56035  0.37740  0.45687  1.0000
  H   H33       1.0  0.63331  0.58050  0.02618  1.0000
  H   H34       1.0  0.41913  0.05634  0.00771  1.0000
  H   H35       1.0  0.94282  0.36475  0.01933  1.0000
  H   H36       1.0  0.58821  0.50377  0.44748  1.0000
  H   H37       1.0  0.49543  0.08418  0.45301  1.0000
  H   H38       1.0  0.92087  0.41717  0.43157  1.0000
  H   H39       1.0  0.40739  0.48608  0.07501  1.0000
  H   H40       1.0  0.51239  0.92420  0.05856  1.0000
  H   H41       1.0  0.08701  0.59449  0.06807  1.0000
  H   H42       1.0  0.45213  0.56080  0.16868  1.0000
  H   H43       1.0  0.43814  0.89262  0.15160  1.0000
  H   H44       1.0  0.11519  0.54920  0.17002  1.0000
  H   H45       1.0  0.39845  0.64437  0.72250  1.0000
  H   H46       1.0  0.24071  0.60016  0.75121  1.0000
  H   H47       1.0  0.46580  0.66899  0.64823  1.0000
  H   H48       1.0  0.19627  0.53195  0.68504  1.0000
  H   H49       1.0  0.50026  0.76641  0.96725  1.0000
  H   H50       1.0  0.26888  0.50173  0.96019  1.0000
  H   H51       1.0  0.43230  0.74715  0.50968  1.0000
  H   H52       1.0  0.25541  0.68628  0.49804  1.0000
  H   H53       1.0  0.57433  0.74021  0.68558  1.0000
  H   H54       1.0  0.25841  0.83153  0.63266  1.0000
  H   H55       1.0  0.16486  0.42432  0.68883  1.0000
  H   H56       1.0  0.48919  0.66030  0.92267  1.0000
  H   H57       1.0  0.33727  0.83120  0.90767  1.0000
  H   H58       1.0  0.48138  0.59630  0.94777  1.0000
  H   H59       1.0  0.39982  0.88929  0.94657  1.0000
  H   H60       1.0  0.58663  0.63436  0.69331  1.0000
  H   H61       1.0  0.36289  0.95255  0.64297  1.0000
  H   H62       1.0  0.59396  0.69842  0.66288  1.0000
  H   H63       1.0  0.30021  0.89407  0.60056  1.0000
  H   H64       1.0  0.44530  0.32938  0.03522  1.0000
  H   H65       1.0  0.66910  0.11899  0.05194  1.0000
  H   H66       1.0  0.88633  0.55373  0.00736  1.0000
  H   H67       1.0  0.50312  0.27566  0.75223  1.0000
  H   H68       1.0  0.56455  0.27656  0.79447  1.0000
  H   H69       1.0  0.61508  0.23944  0.99109  1.0000
  H   H70       1.0  0.76108  0.37828  0.98900  1.0000
  H   H71       1.0  0.62033  0.18185  0.94002  1.0000
  H   H72       1.0  0.82009  0.43932  0.92765  1.0000
  H   H73       1.0  0.63328  0.57915  0.52817  1.0000
  H   H74       1.0  0.41989  0.05336  0.51728  1.0000
  H   H75       1.0  0.94868  0.37021  0.50661  1.0000
  H   H76       1.0  0.58895  0.50530  0.94601  1.0000
  H   H77       1.0  0.49477  0.08541  0.95331  1.0000
  H   H78       1.0  0.91385  0.41038  0.94097  1.0000
  H   H79       1.0  0.40720  0.48523  0.57253  1.0000
  H   H80       1.0  0.50901  0.92261  0.57247  1.0000
  H   H81       1.0  0.07779  0.58667  0.55685  1.0000
  H   H82       1.0  0.45096  0.55994  0.66787  1.0000
  H   H83       1.0  0.43451  0.89281  0.65888  1.0000
  H   H84       1.0  0.10710  0.54252  0.66450  1.0000
  C   C1        1.0  0.37026  0.67966  0.41140  1.0000
  C   C2        1.0  0.32144  0.69175  0.39561  1.0000
  C   C3        1.0  0.30903  0.63066  0.41584  1.0000
  C   C4        1.0  0.42041  0.66918  0.29894  1.0000
  C   C5        1.0  0.32950  0.75100  0.26698  1.0000
  C   C6        1.0  0.45784  0.68210  0.25576  1.0000
  C   C7        1.0  0.31586  0.77508  0.22322  1.0000
  C   C8        1.0  0.48725  0.71837  0.30866  1.0000
  C   C9        1.0  0.28064  0.76847  0.28300  1.0000
  C   C10       1.0  0.47748  0.74150  0.40198  1.0000
  C   C11       1.0  0.25906  0.73600  0.38226  1.0000
  C   C12       1.0  0.43980  0.72903  0.43979  1.0000
  C   C13       1.0  0.27230  0.71137  0.42213  1.0000
  C   C14       1.0  0.41080  0.69269  0.38856  1.0000
  C   C15       1.0  0.30782  0.71867  0.36557  1.0000
  C   C16       1.0  0.54570  0.72018  0.23605  1.0000
  C   C17       1.0  0.27786  0.82519  0.21505  1.0000
  C   C18       1.0  0.17696  0.45088  0.27135  1.0000
  C   C19       1.0  0.34463  0.85660  0.34651  1.0000
  C   C20       1.0  0.14677  0.48828  0.38029  1.0000
  C   C21       1.0  0.38049  0.88867  0.36289  1.0000
  C   C22       1.0  0.11554  0.49331  0.38372  1.0000
  C   C23       1.0  0.38846  0.92383  0.29426  1.0000
  C   C24       1.0  0.08048  0.46667  0.30880  1.0000
  C   C25       1.0  0.35867  0.92631  0.21552  1.0000
  C   C26       1.0  0.07729  0.43368  0.23681  1.0000
  C   C27       1.0  0.32292  0.89387  0.19605  1.0000
  C   C28       1.0  0.10892  0.42908  0.23038  1.0000
  C   C29       1.0  0.31543  0.85815  0.25632  1.0000
  C   C30       1.0  0.14461  0.45681  0.29699  1.0000
  C   C31       1.0  0.55310  0.56053  0.36579  1.0000
  C   C32       1.0  0.43822  0.99310  0.34947  1.0000
  C   C33       1.0  0.01161  0.44885  0.34466  1.0000
  C   C34       1.0  0.54740  0.52308  0.35977  1.0000
  C   C35       1.0  0.47577  0.02503  0.35091  1.0000
  C   C36       1.0  0.98063  0.45567  0.33808  1.0000
  C   C37       1.0  0.51276  0.49221  0.29656  1.0000
  C   C38       1.0  0.50653  0.02189  0.28927  1.0000
  C   C39       1.0  0.98505  0.49013  0.27186  1.0000
  C   C40       1.0  0.48614  0.50290  0.24905  1.0000
  C   C41       1.0  0.49570  0.98488  0.23621  1.0000
  C   C42       1.0  0.02275  0.51591  0.22759  1.0000
  C   C43       1.0  0.49184  0.54028  0.25715  1.0000
  C   C44       1.0  0.45844  0.95279  0.24107  1.0000
  C   C45       1.0  0.05396  0.50963  0.24204  1.0000
  C   C46       1.0  0.52673  0.57110  0.31626  1.0000
  C   C47       1.0  0.42765  0.95629  0.29774  1.0000
  C   C48       1.0  0.04900  0.47461  0.30074  1.0000
  C   C49       1.0  0.46853  0.42171  0.28175  1.0000
  C   C50       1.0  0.46020  0.38618  0.22344  1.0000
  C   C51       1.0  0.48850  0.37996  0.15763  1.0000
  C   C52       1.0  0.52617  0.41072  0.16075  1.0000
  C   C53       1.0  0.53428  0.44672  0.21277  1.0000
  C   C54       1.0  0.50553  0.45336  0.26868  1.0000
  C   C55       1.0  0.47501  0.34242  0.07904  1.0000
  C   C56       1.0  0.65627  0.13585  0.09033  1.0000
  C   C57       1.0  0.86987  0.52437  0.05299  1.0000
  C   C58       1.0  0.69908  0.23240  0.18963  1.0000
  C   C59       1.0  0.77415  0.47300  0.16295  1.0000
  C   C60       1.0  0.69728  0.26527  0.20973  1.0000
  C   C61       1.0  0.74067  0.43906  0.19066  1.0000
  C   C62       1.0  0.66665  0.26783  0.14083  1.0000
  C   C63       1.0  0.73575  0.40450  0.12910  1.0000
  C   C64       1.0  0.63804  0.23689  0.04962  1.0000
  C   C65       1.0  0.76540  0.40493  0.04030  1.0000
  C   C66       1.0  0.64045  0.20432  0.02399  1.0000
  C   C67       1.0  0.79880  0.43900  0.00921  1.0000
  C   C68       1.0  0.67059  0.20130  0.09668  1.0000
  C   C69       1.0  0.80388  0.47362  0.07218  1.0000
  C   C70       1.0  0.63467  0.33638  0.15898  1.0000
  C   C71       1.0  0.66647  0.30379  0.15301  1.0000
  C   C72       1.0  0.69938  0.36863  0.14700  1.0000
  C   C73       1.0  0.60516  0.56364  0.47138  1.0000
  C   C74       1.0  0.43533  0.04123  0.46079  1.0000
  C   C75       1.0  0.96205  0.39813  0.45004  1.0000
  C   C76       1.0  0.58184  0.52637  0.42967  1.0000
  C   C77       1.0  0.47267  0.05553  0.42564  1.0000
  C   C78       1.0  0.94924  0.42228  0.41013  1.0000
  C   C79       1.0  0.43503  0.50100  0.13640  1.0000
  C   C80       1.0  0.49757  0.93633  0.12096  1.0000
  C   C81       1.0  0.07332  0.56675  0.12590  1.0000
  C   C82       1.0  0.45814  0.53790  0.18371  1.0000
  C   C83       1.0  0.46084  0.92186  0.16681  1.0000
  C   C84       1.0  0.08616  0.54321  0.17623  1.0000
  C   C85       1.0  0.37033  0.67873  0.90429  1.0000
  C   C86       1.0  0.32252  0.69233  0.89584  1.0000
  C   C87       1.0  0.30856  0.63064  0.90470  1.0000
  C   C88       1.0  0.42096  0.67059  0.77907  1.0000
  C   C89       1.0  0.24626  0.57832  0.79911  1.0000
  C   C90       1.0  0.45869  0.68434  0.73823  1.0000
  C   C91       1.0  0.22137  0.54011  0.76329  1.0000
  C   C92       1.0  0.48782  0.71898  0.80719  1.0000
  C   C93       1.0  0.22915  0.51188  0.82169  1.0000
  C   C94       1.0  0.47768  0.73980  0.91412  1.0000
  C   C95       1.0  0.26299  0.52357  0.91575  1.0000
  C   C96       1.0  0.43977  0.72655  0.95061  1.0000
  C   C97       1.0  0.28830  0.56188  0.94797  1.0000
  C   C98       1.0  0.41095  0.69173  0.88358  1.0000
  C   C99       1.0  0.28042  0.58978  0.88876  1.0000
  C   C100      1.0  0.54674  0.72141  0.74279  1.0000
  C   C101      1.0  0.27773  0.82427  0.69919  1.0000
  C   C102      1.0  0.17277  0.45167  0.74872  1.0000
  C   C103      1.0  0.51027  0.65473  0.86959  1.0000
  C   C104      1.0  0.34267  0.85746  0.84825  1.0000
  C   C105      1.0  0.50586  0.61870  0.88384  1.0000
  C   C106      1.0  0.37792  0.89014  0.86987  1.0000
  C   C107      1.0  0.53276  0.61044  0.81779  1.0000
  C   C108      1.0  0.38614  0.92476  0.79422  1.0000
  C   C109      1.0  0.56544  0.64013  0.74434  1.0000
  C   C110      1.0  0.35706  0.92614  0.70300  1.0000
  C   C111      1.0  0.56938  0.67601  0.72691  1.0000
  C   C112      1.0  0.32189  0.89314  0.67912  1.0000
  C   C113      1.0  0.54139  0.68377  0.78400  1.0000
  C   C114      1.0  0.31432  0.85795  0.74656  1.0000
  C   C115      1.0  0.55256  0.56108  0.86673  1.0000
  C   C116      1.0  0.43650  0.99433  0.85150  1.0000
  C   C117      1.0  0.00506  0.44371  0.85797  1.0000
  C   C118      1.0  0.54735  0.52380  0.85983  1.0000
  C   C119      1.0  0.47446  0.02569  0.85637  1.0000
  C   C120      1.0  0.97377  0.45007  0.85123  1.0000
  C   C121      1.0  0.51284  0.49263  0.79696  1.0000
  C   C122      1.0  0.50509  0.02167  0.80002  1.0000
  C   C123      1.0  0.97801  0.48449  0.78538  1.0000
  C   C124      1.0  0.48594  0.50299  0.75000  1.0000
  C   C125      1.0  0.49366  0.98447  0.74778  1.0000
  C   C126      1.0  0.01540  0.51025  0.73735  1.0000
  C   C127      1.0  0.49106  0.54012  0.75897  1.0000
  C   C128      1.0  0.45602  0.95301  0.74939  1.0000
  C   C129      1.0  0.04665  0.50407  0.74894  1.0000
  C   C130      1.0  0.52574  0.57123  0.81864  1.0000
  C   C131      1.0  0.42539  0.95728  0.80147  1.0000
  C   C132      1.0  0.04205  0.46941  0.80960  1.0000
  C   C133      1.0  0.47732  0.34273  0.58532  1.0000
  C   C134      1.0  0.65562  0.13024  0.58930  1.0000
  C   C135      1.0  0.86506  0.52026  0.55095  1.0000
  C   C136      1.0  0.52934  0.29842  0.70070  1.0000
  C   C137      1.0  0.56352  0.29911  0.72503  1.0000
  C   C138      1.0  0.59733  0.32911  0.66050  1.0000
  C   C139      1.0  0.59596  0.35817  0.57106  1.0000
  C   C140      1.0  0.56157  0.35695  0.54138  1.0000
  C   C141      1.0  0.52769  0.32729  0.60826  1.0000
  C   C142      1.0  0.63359  0.32940  0.67200  1.0000
  C   C143      1.0  0.66672  0.29810  0.66310  1.0000
  C   C144      1.0  0.69832  0.36298  0.66662  1.0000
  C   C145      1.0  0.60514  0.56488  0.97005  1.0000
  C   C146      1.0  0.43430  0.04342  0.95571  1.0000
  C   C147      1.0  0.95593  0.39266  0.96329  1.0000
  C   C148      1.0  0.58207  0.52754  0.92863  1.0000
  C   C149      1.0  0.47173  0.05684  0.92618  1.0000
  C   C150      1.0  0.94252  0.41626  0.92147  1.0000
  C   C151      1.0  0.43467  0.50038  0.63535  1.0000
  C   C152      1.0  0.49459  0.93533  0.63367  1.0000
  C   C153      1.0  0.06495  0.55990  0.62292  1.0000
  C   C154      1.0  0.45729  0.53727  0.68380  1.0000
  C   C155      1.0  0.45780  0.92167  0.67619  1.0000
  C   C156      1.0  0.07827  0.53691  0.67541  1.0000
  N   N1        1.0  0.52458  0.73518  0.25297  1.0000
  N   N2        1.0  0.26317  0.78891  0.23129  1.0000
  N   N3        1.0  0.21326  0.47236  0.29258  1.0000
  N   N4        1.0  0.48992  0.32156  0.05560  1.0000
  N   N5        1.0  0.67737  0.17166  0.06310  1.0000
  N   N6        1.0  0.83379  0.50945  0.03028  1.0000
  N   N7        1.0  0.29502  0.65438  0.40299  1.0000
  N   N8        1.0  0.34634  0.64185  0.42586  1.0000
  N   N9        1.0  0.35940  0.70592  0.39991  1.0000
  N   N10       1.0  0.66715  0.37039  0.15352  1.0000
  N   N11       1.0  0.63272  0.30222  0.16136  1.0000
  N   N12       1.0  0.70056  0.33613  0.14716  1.0000
  N   N13       1.0  0.52562  0.73646  0.75714  1.0000
  N   N14       1.0  0.26400  0.78818  0.71772  1.0000
  N   N15       1.0  0.20892  0.47377  0.77080  1.0000
  N   N16       1.0  0.49158  0.32109  0.56751  1.0000
  N   N17       1.0  0.67726  0.16576  0.55748  1.0000
  N   N18       1.0  0.82895  0.50564  0.53080  1.0000
  N   N19       1.0  0.29549  0.65516  0.89981  1.0000
  N   N20       1.0  0.34569  0.64087  0.90834  1.0000
  N   N21       1.0  0.36031  0.70571  0.90182  1.0000
  N   N22       1.0  0.66568  0.36374  0.67456  1.0000
  N   N23       1.0  0.63241  0.29563  0.66701  1.0000
  N   N24       1.0  0.70048  0.33095  0.66452  1.0000
  O   O1        1.0  0.58869  0.58544  0.43376  1.0000
  O   O2        1.0  0.41341  0.00319  0.41662  1.0000
  O   O3        1.0  0.99992  0.41317  0.41039  1.0000
  O   O4        1.0  0.45098  0.47878  0.17454  1.0000
  O   O5        1.0  0.51961  0.97466  0.15995  1.0000
  O   O6        1.0  0.03496  0.55121  0.15563  1.0000
  O   O7        1.0  0.58821  0.58631  0.93377  1.0000
  O   O8        1.0  0.41183  0.00545  0.91074  1.0000
  O   O9        1.0  0.99395  0.40834  0.92589  1.0000
  O   O10       1.0  0.45108  0.47861  0.67389  1.0000
  O   O11       1.0  0.51733  0.97345  0.67517  1.0000
  O   O12       1.0  0.02689  0.54474  0.65868  1.0000
  C   C157      1.0  0.94136  0.54555  0.19699  1.0000
  C   C158      1.0  0.90507  0.52034  0.13167  1.0000
  C  Sn1       1.0  0.89125  0.48116  0.13190  1.0000
  C  Sn2       1.0  0.91424  0.46705  0.19888  1.0000
  C   C159      1.0  0.95049  0.49250  0.26403  1.0000
  C   C160      1.0  0.96405  0.53165  0.26314  1.0000
  H   H85       1.0  0.95184  0.57584  0.19638  1.0000
  O  Te1       1.0  0.85493  0.45637  0.06609  1.0000
  O  Te2       1.0  0.90112  0.42802  0.20073  1.0000
  H   H86       1.0  0.99213  0.55116  0.31381  1.0000
  Mg  Mg1       1.0  0.84968  0.40561  0.09670  1.0000
  C   C161      1.0  0.63709  0.22417  0.51710  1.0000
  C   C162      1.0  0.65819  0.25395  0.63063  1.0000
  C  Sn3       1.0  0.68865  0.25554  0.72144  1.0000
  C  Sn4       1.0  0.69808  0.22675  0.69785  1.0000
  C   C163      1.0  0.67681  0.19710  0.58389  1.0000
  C   C164      1.0  0.64639  0.19578  0.49371  1.0000
  H   H87       1.0  0.61356  0.22316  0.44725  1.0000
  O  Te3       1.0  0.70942  0.28548  0.83440  1.0000
  O  Te4       1.0  0.72839  0.22766  0.78693  1.0000
  H   H88       1.0  0.63007  0.17274  0.40574  1.0000
  Mg  Mg2       1.0  0.74819  0.27424  0.92655  1.0000
  C   C165      1.0  0.50468  0.62553  0.40211  1.0000
  C   C166      1.0  0.52589  0.61119  0.32925  1.0000
  C  Sn5       1.0  0.55794  0.63497  0.23558  1.0000
  C  Sn6       1.0  0.56888  0.67381  0.21472  1.0000
  C   C167      1.0  0.54749  0.68788  0.28821  1.0000
  C   C168      1.0  0.51547  0.66384  0.38165  1.0000
  H   H89       1.0  0.47991  0.60693  0.47449  1.0000
  O  Te5       1.0  0.57880  0.62017  0.16359  1.0000
  O  Te6       1.0  0.60079  0.69820  0.12177  1.0000
  H   H90       1.0  0.49906  0.67495  0.43814  1.0000
  Mg  Mg3       1.0  0.62005  0.66470  0.04807  1.0000
  C   C169      1.0  0.57791  0.11515  0.17383  1.0000
  C   C170      1.0  0.61251  0.11579  0.18402  1.0000
  C  Sn7       1.0  0.61355  0.08339  0.23451  1.0000
  C  Sn8       1.0  0.57926  0.04977  0.27543  1.0000
  C   C171      1.0  0.54478  0.04942  0.26471  1.0000
  C   C172      1.0  0.54407  0.08200  0.21410  1.0000
  H   H91       1.0  0.57735  0.14035  0.13458  1.0000
  O  Te7       1.0  0.64838  0.08452  0.24407  1.0000
  O  Te8       1.0  0.57948  0.01699  0.32619  1.0000
  H   H92       1.0  0.51726  0.08149  0.20612  1.0000
  Mg  Mg4       1.0  0.63402  0.03261  0.31976  1.0000
  C   C173      1.0  0.95102  0.53682  0.73349  1.0000
  C   C174      1.0  0.94778  0.50178  0.77218  1.0000
  C  Sn9       1.0  0.91430  0.46787  0.73246  1.0000
  C  Sn10      1.0  0.88355  0.46915  0.65247  1.0000
  C   C175      1.0  0.88709  0.50435  0.61418  1.0000
  C   C176      1.0  0.92071  0.53811  0.65454  1.0000
  H   H93       1.0  0.97704  0.56295  0.76462  1.0000
  O  Te9       1.0  0.91154  0.43310  0.77206  1.0000
  O  Te10      1.0  0.84978  0.43568  0.61131  1.0000
  H   H94       1.0  0.92322  0.56524  0.62446  1.0000
  Mg  Mg5       1.0  0.85970  0.39527  0.69083  1.0000
  C   C177      1.0  0.77136  0.40627  0.52247  1.0000
  C   C178      1.0  0.74239  0.39885  0.63423  1.0000
  C  Sn11      1.0  0.74104  0.42886  0.71199  1.0000
  C  Sn12      1.0  0.76925  0.46697  0.67692  1.0000
  C   C179      1.0  0.79810  0.47410  0.56483  1.0000
  C   C180      1.0  0.79919  0.44386  0.48776  1.0000
  H   H95       1.0  0.77220  0.38288  0.46276  1.0000
  O  Te11      1.0  0.71190  0.42093  0.82337  1.0000
  O  Te12      1.0  0.76856  0.49750  0.75284  1.0000
  H   H96       1.0  0.82161  0.44961  0.40115  1.0000
  Mg  Mg6       1.0  0.72314  0.47218  0.89554  1.0000
  C   C181      1.0  0.56991  0.36477  0.01671  1.0000
  C   C182      1.0  0.53410  0.33570  0.06547  1.0000
  C  Sn13      1.0  0.53089  0.30683  0.17157  1.0000
  C  Sn14      1.0  0.56419  0.30716  0.22977  1.0000
  C   C183      1.0  0.59988  0.33638  0.18037  1.0000
  C   C184      1.0  0.60277  0.36512  0.07411  1.0000
  H   H97       1.0  0.57646  0.38844  0.93457  1.0000
  O  Te13      1.0  0.49490  0.27799  0.21901  1.0000
  O  Te14      1.0  0.56180  0.27866  0.33597  1.0000
  H   H98       1.0  0.63049  0.38764  0.03647  1.0000
  Mg  Mg7       1.0  0.50634  0.24545  0.36556  1.0000
  C   C185      1.0  0.27432  0.53144  0.46408  1.0000
  C   C186      1.0  0.24025  0.51347  0.37090  1.0000
  C  Sn15      1.0  0.22812  0.53505  0.28065  1.0000
  C  Sn16      1.0  0.25058  0.57537  0.28395  1.0000
  C   C187      1.0  0.28463  0.59307  0.37745  1.0000
  C   C188      1.0  0.29650  0.57120  0.46734  1.0000
  H   H99       1.0  0.28351  0.51452  0.53356  1.0000
  O  Te15      1.0  0.19401  0.51664  0.18827  1.0000
  O  Te16      1.0  0.23913  0.59763  0.19485  1.0000
  H   H100      1.0  0.32288  0.58512  0.53938  1.0000
  Mg  Mg8       1.0  0.19044  0.55935  0.08752  1.0000
  C   C189      1.0  0.55940  0.09913  0.71101  1.0000
  C   C190      1.0  0.54550  0.06142  0.75992  1.0000
  C  Sn17      1.0  0.57013  0.04707  0.77723  1.0000
  C  Sn18      1.0  0.60939  0.07098  0.74493  1.0000
  C   C191      1.0  0.62303  0.10867  0.69618  1.0000
  C   C192      1.0  0.59813  0.12274  0.67919  1.0000
  H   H101      1.0  0.54014  0.11003  0.69795  1.0000
  O  Te17      1.0  0.55576  0.00932  0.82614  1.0000
  O  Te18      1.0  0.63464  0.05737  0.76133  1.0000
  H   H102      1.0  0.60890  0.15194  0.64143  1.0000
  Mg  Mg9       1.0  0.60144  0.00389  0.83114  1.0000
  C   C193      1.0  0.53486  0.42221  0.67023  1.0000
  C   C194      1.0  0.50109  0.38717  0.67868  1.0000
  C  Sn19      1.0  0.46757  0.38543  0.72914  1.0000
  C  Sn20      1.0  0.46796  0.41945  0.77181  1.0000
  C   C195      1.0  0.50189  0.45437  0.76284  1.0000
  C   C196      1.0  0.53527  0.45579  0.71224  1.0000
  H   H103      1.0  0.56068  0.42331  0.63100  1.0000
  O  Te19      1.0  0.43408  0.35018  0.73695  1.0000
  O  Te20      1.0  0.43487  0.41853  0.82259  1.0000
  H   H104      1.0  0.56141  0.48293  0.70560  1.0000
  Mg  Mg10      1.0  0.39630  0.36361  0.81340  1.0000
  C   C197      1.0  0.13623  0.49050  0.89632  1.0000
  C   C198      1.0  0.13993  0.46157  0.82135  1.0000
  C  Sn21      1.0  0.10945  0.43247  0.73089  1.0000
  C  Sn22      1.0  0.07467  0.43243  0.71537  1.0000
  C   C199      1.0  0.07126  0.46152  0.79074  1.0000
  C   C200      1.0  0.10193  0.49049  0.88102  1.0000
  H   H105      1.0  0.15996  0.51293  0.96610  1.0000
  O  Te21      1.0  0.11362  0.40377  0.65683  1.0000
  O  Te22      1.0  0.04376  0.40370  0.62562  1.0000
  H   H106      1.0  0.09907  0.51290  0.93896  1.0000
  Mg  Mg11      1.0  0.06336  0.37080  0.54733  1.0000
  C   C201      1.0  0.26655  0.71525  0.92811  1.0000
  C   C202      1.0  0.29910  0.71548  0.87384  1.0000
  C  Sn23      1.0  0.32501  0.74481  0.77175  1.0000
  C  Sn24      1.0  0.31812  0.77443  0.72333  1.0000
  C   C203      1.0  0.28549  0.77396  0.77837  1.0000
  C   C204      1.0  0.25975  0.74447  0.88046  1.0000
  H   H107      1.0  0.24233  0.69102  0.00717  1.0000
  O  Te23      1.0  0.35737  0.74459  0.71861  1.0000
  O  Te24      1.0  0.34355  0.80410  0.62142  1.0000
  H   H108      1.0  0.23457  0.74432  0.92254  1.0000
  Mg  Mg12      1.0  0.38360  0.79123  0.58107  1.0000
