data_image0
_chemical_formula_structural       H36C84N24O12C2Sn2C2HTe2HMgC2Sn2C2HTe2HMgC2Sn2C2HTe2HMgC2Sn2C2HTe2HMgC2Sn2C2HTe2HMgC2Sn2C2HTe2HMgC2Sn2C2HTe2HMgC2Sn2C2HTe2HMgC2Sn2C2HTe2HMgC2Sn2C2HTe2HMgC2Sn2C2HTe2HMgC2Sn2C2HTe2HMgC2Sn2C2HTe2HMgC2Sn2C2HTe2HMgC2Sn2C2HTe2HMgC2Sn2C2HTe2HMgC2Sn2C2HTe2HMgC2Sn2C2HTe2HMgC2Sn2C2HTe2HMgC2Sn2C2HTe2HMgC2Sn2C2HTe2HMgC2Sn2C2HTe2HMgC2Sn2C2HTe2HMgC2Sn2C2HTe2HMg
_chemical_formula_sum              "H84 C180 N24 O12 Sn48 Te48 Mg24"
_cell_length_a       40.7268
_cell_length_b       40.6838
_cell_length_c       7.96539
_cell_angle_alpha    89.7784
_cell_angle_beta     91.0552
_cell_angle_gamma    120.302

_symmetry_space_group_name_H-M    'P1'
_space_group_IT_number       1

loop_
  _space_group_symop_operation_xyz
  'x, y, z'

loop_
  _atom_site_type_symbol
  _atom_site_label
  _atom_site_symmetry_multiplicity
  _atom_site_fract_x
  _atom_site_fract_y
  _atom_site_fract_z
  _atom_site_occupancy
  H   H1        1.0  0.57255  0.73872  0.17258  1.0000
  H   H2        1.0  0.25844  0.83352  0.15778  1.0000
  H   H3        1.0  0.16817  0.42231  0.22333  1.0000
  H   H4        1.0  0.44768  0.32968  0.54016  1.0000
  H   H5        1.0  0.66738  0.11237  0.55158  1.0000
  H   H6        1.0  0.88180  0.54904  0.49938  1.0000
  H   H7        1.0  0.63331  0.58050  0.02618  1.0000
  H   H8        1.0  0.41913  0.05634  0.00771  1.0000
  H   H9        1.0  0.94282  0.36475  0.01933  1.0000
  H   H10       1.0  0.58821  0.50377  0.44748  1.0000
  H   H11       1.0  0.49543  0.08418  0.45301  1.0000
  H   H12       1.0  0.92087  0.41717  0.43157  1.0000
  H   H13       1.0  0.40739  0.48608  0.07501  1.0000
  H   H14       1.0  0.51239  0.92420  0.05856  1.0000
  H   H15       1.0  0.08701  0.59449  0.06807  1.0000
  H   H16       1.0  0.45213  0.56080  0.16868  1.0000
  H   H17       1.0  0.43814  0.89262  0.15160  1.0000
  H   H18       1.0  0.11519  0.54920  0.17002  1.0000
  H   H19       1.0  0.57433  0.74021  0.68558  1.0000
  H   H20       1.0  0.25841  0.83153  0.63266  1.0000
  H   H21       1.0  0.16486  0.42432  0.68883  1.0000
  H   H22       1.0  0.44530  0.32938  0.03522  1.0000
  H   H23       1.0  0.66910  0.11899  0.05194  1.0000
  H   H24       1.0  0.88633  0.55373  0.00736  1.0000
  H   H25       1.0  0.63328  0.57915  0.52817  1.0000
  H   H26       1.0  0.41989  0.05336  0.51728  1.0000
  H   H27       1.0  0.94868  0.37021  0.50661  1.0000
  H   H28       1.0  0.58895  0.50530  0.94601  1.0000
  H   H29       1.0  0.49477  0.08541  0.95331  1.0000
  H   H30       1.0  0.91385  0.41038  0.94097  1.0000
  H   H31       1.0  0.40720  0.48523  0.57253  1.0000
  H   H32       1.0  0.50901  0.92261  0.57247  1.0000
  H   H33       1.0  0.07779  0.58667  0.55685  1.0000
  H   H34       1.0  0.45096  0.55994  0.66787  1.0000
  H   H35       1.0  0.43451  0.89281  0.65888  1.0000
  H   H36       1.0  0.10710  0.54252  0.66450  1.0000
  C   C1        1.0  0.37026  0.67966  0.41140  1.0000
  C   C2        1.0  0.32144  0.69175  0.39561  1.0000
  C   C3        1.0  0.30903  0.63066  0.41584  1.0000
  C   C4        1.0  0.54570  0.72018  0.23605  1.0000
  C   C5        1.0  0.27786  0.82519  0.21505  1.0000
  C   C6        1.0  0.17696  0.45088  0.27135  1.0000
  C   C7        1.0  0.55310  0.56053  0.36579  1.0000
  C   C8        1.0  0.43822  0.99310  0.34947  1.0000
  C   C9        1.0  0.01161  0.44885  0.34466  1.0000
  C   C10       1.0  0.54740  0.52308  0.35977  1.0000
  C   C11       1.0  0.47577  0.02503  0.35091  1.0000
  C   C12       1.0  0.98063  0.45567  0.33808  1.0000
  C   C13       1.0  0.51276  0.49221  0.29656  1.0000
  C   C14       1.0  0.50653  0.02189  0.28927  1.0000
  C   C15       1.0  0.98505  0.49013  0.27186  1.0000
  C   C16       1.0  0.48614  0.50290  0.24905  1.0000
  C   C17       1.0  0.49570  0.98488  0.23621  1.0000
  C   C18       1.0  0.02275  0.51591  0.22759  1.0000
  C   C19       1.0  0.49184  0.54028  0.25715  1.0000
  C   C20       1.0  0.45844  0.95279  0.24107  1.0000
  C   C21       1.0  0.05396  0.50963  0.24204  1.0000
  C   C22       1.0  0.52673  0.57110  0.31626  1.0000
  C   C23       1.0  0.42765  0.95629  0.29774  1.0000
  C   C24       1.0  0.04900  0.47461  0.30074  1.0000
  C   C25       1.0  0.47501  0.34242  0.07904  1.0000
  C   C26       1.0  0.65627  0.13585  0.09033  1.0000
  C   C27       1.0  0.86987  0.52437  0.05299  1.0000
  C   C28       1.0  0.63467  0.33638  0.15898  1.0000
  C   C29       1.0  0.66647  0.30379  0.15301  1.0000
  C   C30       1.0  0.69938  0.36863  0.14700  1.0000
  C   C31       1.0  0.60516  0.56364  0.47138  1.0000
  C   C32       1.0  0.43533  0.04123  0.46079  1.0000
  C   C33       1.0  0.96205  0.39813  0.45004  1.0000
  C   C34       1.0  0.58184  0.52637  0.42967  1.0000
  C   C35       1.0  0.47267  0.05553  0.42564  1.0000
  C   C36       1.0  0.94924  0.42228  0.41013  1.0000
  C   C37       1.0  0.43503  0.50100  0.13640  1.0000
  C   C38       1.0  0.49757  0.93633  0.12096  1.0000
  C   C39       1.0  0.07332  0.56675  0.12590  1.0000
  C   C40       1.0  0.45814  0.53790  0.18371  1.0000
  C   C41       1.0  0.46084  0.92186  0.16681  1.0000
  C   C42       1.0  0.08616  0.54321  0.17623  1.0000
  C   C43       1.0  0.37033  0.67873  0.90429  1.0000
  C   C44       1.0  0.32252  0.69233  0.89584  1.0000
  C   C45       1.0  0.30856  0.63064  0.90470  1.0000
  C   C46       1.0  0.54674  0.72141  0.74279  1.0000
  C   C47       1.0  0.27773  0.82427  0.69919  1.0000
  C   C48       1.0  0.17277  0.45167  0.74872  1.0000
  C   C49       1.0  0.55256  0.56108  0.86673  1.0000
  C   C50       1.0  0.43650  0.99433  0.85150  1.0000
  C   C51       1.0  0.00506  0.44371  0.85797  1.0000
  C   C52       1.0  0.54735  0.52380  0.85983  1.0000
  C   C53       1.0  0.47446  0.02569  0.85637  1.0000
  C   C54       1.0  0.97377  0.45007  0.85123  1.0000
  C   C55       1.0  0.51284  0.49263  0.79696  1.0000
  C   C56       1.0  0.50509  0.02167  0.80002  1.0000
  C   C57       1.0  0.97801  0.48449  0.78538  1.0000
  C   C58       1.0  0.48594  0.50299  0.75000  1.0000
  C   C59       1.0  0.49366  0.98447  0.74778  1.0000
  C   C60       1.0  0.01540  0.51025  0.73735  1.0000
  C   C61       1.0  0.49106  0.54012  0.75897  1.0000
  C   C62       1.0  0.45602  0.95301  0.74939  1.0000
  C   C63       1.0  0.04665  0.50407  0.74894  1.0000
  C   C64       1.0  0.52574  0.57123  0.81864  1.0000
  C   C65       1.0  0.42539  0.95728  0.80147  1.0000
  C   C66       1.0  0.04205  0.46941  0.80960  1.0000
  C   C67       1.0  0.47732  0.34273  0.58532  1.0000
  C   C68       1.0  0.65562  0.13024  0.58930  1.0000
  C   C69       1.0  0.86506  0.52026  0.55095  1.0000
  C   C70       1.0  0.63359  0.32940  0.67200  1.0000
  C   C71       1.0  0.66672  0.29810  0.66310  1.0000
  C   C72       1.0  0.69832  0.36298  0.66662  1.0000
  C   C73       1.0  0.60514  0.56488  0.97005  1.0000
  C   C74       1.0  0.43430  0.04342  0.95571  1.0000
  C   C75       1.0  0.95593  0.39266  0.96329  1.0000
  C   C76       1.0  0.58207  0.52754  0.92863  1.0000
  C   C77       1.0  0.47173  0.05684  0.92618  1.0000
  C   C78       1.0  0.94252  0.41626  0.92147  1.0000
  C   C79       1.0  0.43467  0.50038  0.63535  1.0000
  C   C80       1.0  0.49459  0.93533  0.63367  1.0000
  C   C81       1.0  0.06495  0.55990  0.62292  1.0000
  C   C82       1.0  0.45729  0.53727  0.68380  1.0000
  C   C83       1.0  0.45780  0.92167  0.67619  1.0000
  C   C84       1.0  0.07827  0.53691  0.67541  1.0000
  N   N1        1.0  0.52458  0.73518  0.25297  1.0000
  N   N2        1.0  0.26317  0.78891  0.23129  1.0000
  N   N3        1.0  0.21326  0.47236  0.29258  1.0000
  N   N4        1.0  0.48992  0.32156  0.05560  1.0000
  N   N5        1.0  0.67737  0.17166  0.06310  1.0000
  N   N6        1.0  0.83379  0.50945  0.03028  1.0000
  N   N7        1.0  0.29502  0.65438  0.40299  1.0000
  N   N8        1.0  0.34634  0.64185  0.42586  1.0000
  N   N9        1.0  0.35940  0.70592  0.39991  1.0000
  N   N10       1.0  0.66715  0.37039  0.15352  1.0000
  N   N11       1.0  0.63272  0.30222  0.16136  1.0000
  N   N12       1.0  0.70056  0.33613  0.14716  1.0000
  N   N13       1.0  0.52562  0.73646  0.75714  1.0000
  N   N14       1.0  0.26400  0.78818  0.71772  1.0000
  N   N15       1.0  0.20892  0.47377  0.77080  1.0000
  N   N16       1.0  0.49158  0.32109  0.56751  1.0000
  N   N17       1.0  0.67726  0.16576  0.55748  1.0000
  N   N18       1.0  0.82895  0.50564  0.53080  1.0000
  N   N19       1.0  0.29549  0.65516  0.89981  1.0000
  N   N20       1.0  0.34569  0.64087  0.90834  1.0000
  N   N21       1.0  0.36031  0.70571  0.90182  1.0000
  N   N22       1.0  0.66568  0.36374  0.67456  1.0000
  N   N23       1.0  0.63241  0.29563  0.66701  1.0000
  N   N24       1.0  0.70048  0.33095  0.66452  1.0000
  O   O1        1.0  0.58869  0.58544  0.43376  1.0000
  O   O2        1.0  0.41341  0.00319  0.41662  1.0000
  O   O3        1.0  0.99992  0.41317  0.41039  1.0000
  O   O4        1.0  0.45098  0.47878  0.17454  1.0000
  O   O5        1.0  0.51961  0.97466  0.15995  1.0000
  O   O6        1.0  0.03496  0.55121  0.15563  1.0000
  O   O7        1.0  0.58821  0.58631  0.93377  1.0000
  O   O8        1.0  0.41183  0.00545  0.91074  1.0000
  O   O9        1.0  0.99395  0.40834  0.92589  1.0000
  O   O10       1.0  0.45108  0.47861  0.67389  1.0000
  O   O11       1.0  0.51733  0.97345  0.67517  1.0000
  O   O12       1.0  0.02689  0.54474  0.65868  1.0000
  C   C85       1.0  0.47039  0.74393  0.41829  1.0000
  C   C86       1.0  0.48565  0.72387  0.34184  1.0000
  C  Sn1       1.0  0.46169  0.68710  0.27937  1.0000
  C  Sn2       1.0  0.42171  0.67019  0.29385  1.0000
  C   C87       1.0  0.40672  0.69051  0.37044  1.0000
  C   C88       1.0  0.43097  0.72728  0.43256  1.0000
  H   H37       1.0  0.48915  0.77238  0.46628  1.0000
  O  Te1       1.0  0.47741  0.66745  0.20341  1.0000
  O  Te2       1.0  0.39710  0.63349  0.23245  1.0000
  H   H38       1.0  0.41914  0.74281  0.49165  1.0000
  Mg  Mg1       1.0  0.43216  0.61816  0.13920  1.0000
  C   C89       1.0  0.33047  0.75898  0.23996  1.0000
  C   C90       1.0  0.31531  0.72842  0.35148  1.0000
  C  Sn3       1.0  0.28016  0.71644  0.42471  1.0000
  C  Sn4       1.0  0.25986  0.73544  0.38529  1.0000
  C   C91       1.0  0.27526  0.76597  0.27348  1.0000
  C   C92       1.0  0.31046  0.77774  0.20096  1.0000
  H   H39       1.0  0.35770  0.76808  0.18377  1.0000
  O  Te3       1.0  0.26543  0.68587  0.53592  1.0000
  O  Te4       1.0  0.22466  0.72404  0.45664  1.0000
  H   H40       1.0  0.32218  0.80138  0.11454  1.0000
  Mg  Mg2       1.0  0.21642  0.68089  0.60100  1.0000
  C   C93       1.0  0.28609  0.55239  0.48853  1.0000
  C   C94       1.0  0.28677  0.58357  0.41062  1.0000
  C  Sn5       1.0  0.25844  0.57799  0.29345  1.0000
  C  Sn6       1.0  0.22890  0.54047  0.25384  1.0000
  C   C95       1.0  0.22845  0.50948  0.33256  1.0000
  C   C96       1.0  0.25695  0.51538  0.44958  1.0000
  H   H41       1.0  0.30813  0.55696  0.57914  1.0000
  O  Te5       1.0  0.25956  0.60945  0.21674  1.0000
  O  Te6       1.0  0.20021  0.53408  0.13725  1.0000
  H   H42       1.0  0.25640  0.49125  0.50996  1.0000
  Mg  Mg3       1.0  0.21408  0.58614  0.06611  1.0000
  C   C97       1.0  0.50468  0.62553  0.40211  1.0000
  C   C98       1.0  0.52589  0.61119  0.32925  1.0000
  C  Sn7       1.0  0.55794  0.63497  0.23558  1.0000
  C  Sn8       1.0  0.56888  0.67381  0.21472  1.0000
  C   C99       1.0  0.54749  0.68788  0.28821  1.0000
  C   C100      1.0  0.51547  0.66384  0.38165  1.0000
  H   H43       1.0  0.47991  0.60693  0.47449  1.0000
  O  Te7       1.0  0.57880  0.62017  0.16359  1.0000
  O  Te8       1.0  0.60079  0.69820  0.12177  1.0000
  H   H44       1.0  0.49906  0.67495  0.43814  1.0000
  Mg  Mg4       1.0  0.62005  0.66470  0.04807  1.0000
  C   C101      1.0  0.35489  0.86070  0.35870  1.0000
  C   C102      1.0  0.32147  0.85758  0.29170  1.0000
  C  Sn9       1.0  0.32208  0.88900  0.21698  1.0000
  C  Sn10      1.0  0.35684  0.92417  0.20935  1.0000
  C   C103      1.0  0.39012  0.92699  0.27664  1.0000
  C   C104      1.0  0.38919  0.89537  0.35117  1.0000
  H   H45       1.0  0.35418  0.83623  0.41629  1.0000
  O  Te9       1.0  0.28842  0.88539  0.15071  1.0000
  O  Te10      1.0  0.35825  0.95602  0.13532  1.0000
  H   H46       1.0  0.41508  0.89779  0.40294  1.0000
  Mg  Mg5       1.0  0.30485  0.93690  0.06261  1.0000
  C   C105      1.0  0.08171  0.42832  0.21926  1.0000
  C   C106      1.0  0.07773  0.45625  0.30252  1.0000
  C  Sn11      1.0  0.10897  0.48637  0.38483  1.0000
  C  Sn12      1.0  0.14483  0.48849  0.38349  1.0000
  C   C107      1.0  0.14852  0.46042  0.29973  1.0000
  C   C108      1.0  0.11706  0.43040  0.21782  1.0000
  H   H47       1.0  0.05738  0.40511  0.15580  1.0000
  O  Te11      1.0  0.10450  0.51402  0.46746  1.0000
  O  Te12      1.0  0.17652  0.51828  0.46468  1.0000
  H   H48       1.0  0.12016  0.40879  0.15327  1.0000
  Mg  Mg6       1.0  0.15612  0.54909  0.56005  1.0000
  C   C109      1.0  0.53310  0.42121  0.16200  1.0000
  C   C110      1.0  0.49927  0.38636  0.17541  1.0000
  C  Sn13      1.0  0.46652  0.38504  0.23420  1.0000
  C  Sn14      1.0  0.46775  0.41931  0.28028  1.0000
  C   C111      1.0  0.50172  0.45403  0.26628  1.0000
  C   C112      1.0  0.53433  0.45502  0.20736  1.0000
  H   H49       1.0  0.55832  0.42197  0.11632  1.0000
  O  Te13      1.0  0.43296  0.34998  0.24688  1.0000
  O  Te14      1.0  0.43543  0.41882  0.33936  1.0000
  H   H50       1.0  0.56051  0.48201  0.19688  1.0000
  Mg  Mg7       1.0  0.39642  0.36401  0.33431  1.0000
  C   C113      1.0  0.57791  0.11515  0.17383  1.0000
  C   C114      1.0  0.61251  0.11579  0.18402  1.0000
  C  Sn15      1.0  0.61355  0.08339  0.23451  1.0000
  C  Sn16      1.0  0.57926  0.04977  0.27543  1.0000
  C   C115      1.0  0.54478  0.04942  0.26471  1.0000
  C   C116      1.0  0.54407  0.08200  0.21410  1.0000
  H   H51       1.0  0.57735  0.14035  0.13458  1.0000
  O  Te15      1.0  0.64838  0.08452  0.24407  1.0000
  O  Te16      1.0  0.57948  0.01699  0.32619  1.0000
  H   H52       1.0  0.51726  0.08149  0.20612  1.0000
  Mg  Mg8       1.0  0.63402  0.03261  0.31976  1.0000
  C   C117      1.0  0.90592  0.46389  0.19483  1.0000
  C   C118      1.0  0.94467  0.48940  0.22274  1.0000
  C  Sn17      1.0  0.95883  0.52862  0.21738  1.0000
  C  Sn18      1.0  0.93367  0.54247  0.18347  1.0000
  C   C119      1.0  0.89494  0.51672  0.15585  1.0000
  C   C120      1.0  0.88108  0.47754  0.16145  1.0000
  H   H53       1.0  0.89519  0.43357  0.19926  1.0000
  O  Te17      1.0  0.99763  0.55370  0.24549  1.0000
  O  Te18      1.0  0.94706  0.58153  0.17745  1.0000
  H   H54       1.0  0.85107  0.45780  0.13995  1.0000
  Mg  Mg9       1.0  0.00227  0.60440  0.22408  1.0000
  C   C121      1.0  0.56991  0.36477  0.01671  1.0000
  C   C122      1.0  0.53410  0.33570  0.06547  1.0000
  C  Sn19      1.0  0.53089  0.30683  0.17157  1.0000
  C  Sn20      1.0  0.56419  0.30716  0.22977  1.0000
  C   C123      1.0  0.59988  0.33638  0.18037  1.0000
  C   C124      1.0  0.60277  0.36512  0.07411  1.0000
  H   H55       1.0  0.57646  0.38844  0.93457  1.0000
  O  Te19      1.0  0.49490  0.27799  0.21901  1.0000
  O  Te20      1.0  0.56180  0.27866  0.33597  1.0000
  H   H56       1.0  0.63049  0.38764  0.03647  1.0000
  Mg  Mg10      1.0  0.50634  0.24545  0.36556  1.0000
  C   C125      1.0  0.63459  0.22781  0.02558  1.0000
  C   C126      1.0  0.65686  0.25897  0.13086  1.0000
  C  Sn21      1.0  0.68876  0.26212  0.21478  1.0000
  C  Sn22      1.0  0.69849  0.23350  0.19260  1.0000
  C   C127      1.0  0.67605  0.20245  0.08690  1.0000
  C   C128      1.0  0.64418  0.19958  0.00358  1.0000
  H   H57       1.0  0.61427  0.22701  0.96103  1.0000
  O  Te21      1.0  0.71069  0.29343  0.31956  1.0000
  O  Te22      1.0  0.73023  0.23595  0.27491  1.0000
  H   H58       1.0  0.63128  0.17688  0.92198  1.0000
  Mg  Mg11      1.0  0.75123  0.28404  0.40454  1.0000
  C   C129      1.0  0.76412  0.46816  0.17785  1.0000
  C   C130      1.0  0.79738  0.47394  0.10303  1.0000
  C  Sn23      1.0  0.79877  0.44337  0.03152  1.0000
  C  Sn24      1.0  0.76620  0.40636  0.03515  1.0000
  C   C131      1.0  0.73305  0.40088  0.11020  1.0000
  C   C132      1.0  0.73198  0.43167  0.18143  1.0000
  H   H59       1.0  0.76328  0.49198  0.23289  1.0000
  O  Te23      1.0  0.83656  0.45108  0.95733  1.0000
  O  Te24      1.0  0.77112  0.37673  0.96456  1.0000
  H   H60       1.0  0.70621  0.42718  0.23925  1.0000
  Mg  Mg12      1.0  0.82338  0.39969  0.87796  1.0000
  C   C133      1.0  0.45003  0.73345  0.96043  1.0000
  C   C134      1.0  0.41728  0.70220  0.89280  1.0000
  C  Sn25      1.0  0.42023  0.67736  0.78174  1.0000
  C  Sn26      1.0  0.45668  0.68398  0.73784  1.0000
  C   C135      1.0  0.48927  0.71530  0.80627  1.0000
  C   C136      1.0  0.48599  0.73999  0.91725  1.0000
  H   H61       1.0  0.44318  0.75111  0.04637  1.0000
  O  Te25      1.0  0.38722  0.64629  0.71527  1.0000
  O  Te26      1.0  0.46044  0.65959  0.62717  1.0000
  H   H62       1.0  0.51136  0.76416  0.96968  1.0000
  Mg  Mg13      1.0  0.40706  0.62115  0.56962  1.0000
  C   C137      1.0  0.32596  0.77437  0.72535  1.0000
  C   C138      1.0  0.29018  0.76999  0.75274  1.0000
  C  Sn27      1.0  0.26386  0.74012  0.85137  1.0000
  C  Sn28      1.0  0.27363  0.71421  0.92379  1.0000
  C   C139      1.0  0.30951  0.71885  0.89573  1.0000
  C   C140      1.0  0.33563  0.74883  0.79679  1.0000
  H   H63       1.0  0.34618  0.79758  0.64888  1.0000
  O  Te27      1.0  0.22822  0.73616  0.87741  1.0000
  O  Te28      1.0  0.24355  0.68269  0.02294  1.0000
  H   H64       1.0  0.36334  0.75222  0.77569  1.0000
  Mg  Mg14      1.0  0.19852  0.68917  0.02193  1.0000
  C   C141      1.0  0.28534  0.55172  0.95697  1.0000
  C   C142      1.0  0.28449  0.58363  0.89707  1.0000
  C  Sn29      1.0  0.25349  0.57919  0.80063  1.0000
  C  Sn30      1.0  0.22280  0.54208  0.76372  1.0000
  C   C143      1.0  0.22391  0.51035  0.82433  1.0000
  C   C144      1.0  0.25507  0.51512  0.92067  1.0000
  H   H65       1.0  0.30512  0.55399  0.03159  1.0000
  O  Te29      1.0  0.25312  0.61137  0.74173  1.0000
  O  Te30      1.0  0.19146  0.53683  0.66767  1.0000
  H   H66       1.0  0.25570  0.49041  0.96712  1.0000
  Mg  Mg15      1.0  0.20410  0.58954  0.61581  1.0000
  C   C145      1.0  0.50396  0.64447  0.88052  1.0000
  C   C146      1.0  0.53470  0.67781  0.81882  1.0000
  C  Sn31      1.0  0.56537  0.67696  0.74763  1.0000
  C  Sn32      1.0  0.56516  0.64203  0.73817  1.0000
  C   C147      1.0  0.53425  0.60883  0.80014  1.0000
  C   C148      1.0  0.50372  0.61001  0.87117  1.0000
  H   H67       1.0  0.48033  0.64537  0.93539  1.0000
  O  Te31      1.0  0.59586  0.71054  0.68666  1.0000
  O  Te32      1.0  0.59542  0.64037  0.66759  1.0000
  H   H68       1.0  0.47991  0.58418  0.91883  1.0000
  Mg  Mg16      1.0  0.63049  0.69375  0.60172  1.0000
  C   C149      1.0  0.34768  0.92127  0.67998  1.0000
  C   C150      1.0  0.37834  0.92700  0.78270  1.0000
  C  Sn33      1.0  0.37720  0.89649  0.86899  1.0000
  C  Sn34      1.0  0.34473  0.85958  0.85185  1.0000
  C   C151      1.0  0.31422  0.85414  0.74868  1.0000
  C   C152      1.0  0.31565  0.88487  0.66294  1.0000
  H   H69       1.0  0.34879  0.94504  0.61356  1.0000
  O  Te33      1.0  0.40808  0.90273  0.97115  1.0000
  O  Te34      1.0  0.34286  0.82859  0.93662  1.0000
  H   H70       1.0  0.29192  0.88041  0.58334  1.0000
  Mg  Mg17      1.0  0.38777  0.85003  0.06111  1.0000
  C   C153      1.0  0.11819  0.49108  0.90955  1.0000
  C   C154      1.0  0.08304  0.47048  0.82600  1.0000
  C  Sn35      1.0  0.07534  0.43943  0.72403  1.0000
  C  Sn36      1.0  0.10341  0.42889  0.70564  1.0000
  C   C155      1.0  0.13847  0.44967  0.78986  1.0000
  C   C156      1.0  0.14588  0.48069  0.89154  1.0000
  H   H71       1.0  0.12391  0.51507  0.98831  1.0000
  O  Te35      1.0  0.04009  0.41917  0.64140  1.0000
  O  Te36      1.0  0.09646  0.39798  0.60456  1.0000
  H   H72       1.0  0.17308  0.49662  0.95631  1.0000
  Mg  Mg18      1.0  0.04407  0.37923  0.51760  1.0000
  C   C157      1.0  0.53486  0.42221  0.67023  1.0000
  C   C158      1.0  0.50109  0.38717  0.67868  1.0000
  C  Sn37      1.0  0.46757  0.38543  0.72914  1.0000
  C  Sn38      1.0  0.46796  0.41945  0.77181  1.0000
  C   C159      1.0  0.50189  0.45437  0.76284  1.0000
  C   C160      1.0  0.53527  0.45579  0.71224  1.0000
  H   H73       1.0  0.56068  0.42331  0.63100  1.0000
  O  Te37      1.0  0.43408  0.35018  0.73695  1.0000
  O  Te38      1.0  0.43487  0.41853  0.82259  1.0000
  H   H74       1.0  0.56141  0.48293  0.70560  1.0000
  Mg  Mg19      1.0  0.39630  0.36361  0.81340  1.0000
  C   C161      1.0  0.60466  0.06341  0.76060  1.0000
  C   C162      1.0  0.61651  0.09782  0.67764  1.0000
  C  Sn39      1.0  0.59160  0.11174  0.65576  1.0000
  C  Sn40      1.0  0.55416  0.09075  0.71826  1.0000
  C   C163      1.0  0.54259  0.05636  0.80117  1.0000
  C   C164      1.0  0.56774  0.04269  0.82234  1.0000
  H   H75       1.0  0.62413  0.05284  0.77706  1.0000
  O  Te39      1.0  0.60390  0.14617  0.57252  1.0000
  O  Te40      1.0  0.52869  0.10400  0.69816  1.0000
  H   H76       1.0  0.55857  0.01605  0.88667  1.0000
  Mg  Mg20      1.0  0.55874  0.15242  0.57606  1.0000
  C   C165      1.0  0.93522  0.54068  0.70947  1.0000
  C   C166      1.0  0.89974  0.51596  0.63553  1.0000
  C  Sn41      1.0  0.88585  0.47677  0.63213  1.0000
  C  Sn42      1.0  0.90795  0.46214  0.70422  1.0000
  C   C167      1.0  0.94339  0.48710  0.77799  1.0000
  C   C168      1.0  0.95703  0.52627  0.78066  1.0000
  H   H77       1.0  0.94576  0.57097  0.71162  1.0000
  O  Te41      1.0  0.85035  0.45249  0.55770  1.0000
  O  Te42      1.0  0.89474  0.42310  0.70260  1.0000
  H   H78       1.0  0.98449  0.54539  0.83801  1.0000
  Mg  Mg21      1.0  0.84462  0.40148  0.58651  1.0000
  C   C169      1.0  0.59055  0.36181  0.54641  1.0000
  C   C170      1.0  0.59841  0.33905  0.65216  1.0000
  C  Sn43      1.0  0.56886  0.30763  0.73156  1.0000
  C  Sn44      1.0  0.53076  0.29890  0.70431  1.0000
  C   C171      1.0  0.52319  0.32183  0.59820  1.0000
  C   C172      1.0  0.55298  0.35322  0.51942  1.0000
  H   H79       1.0  0.61359  0.38609  0.48538  1.0000
  O  Te43      1.0  0.57722  0.28519  0.83686  1.0000
  O  Te44      1.0  0.50068  0.26765  0.78204  1.0000
  H   H80       1.0  0.54688  0.37082  0.43747  1.0000
  Mg  Mg22      1.0  0.52649  0.24565  0.91443  1.0000
  C   C173      1.0  0.63675  0.20525  0.50977  1.0000
  C   C174      1.0  0.66524  0.19752  0.55964  1.0000
  C  Sn45      1.0  0.69485  0.22263  0.66676  1.0000
  C  Sn46      1.0  0.69588  0.25607  0.72485  1.0000
  C   C175      1.0  0.66723  0.26353  0.67432  1.0000
  C   C176      1.0  0.63773  0.23821  0.56706  1.0000
  H   H81       1.0  0.61391  0.18565  0.42685  1.0000
  O  Te45      1.0  0.72309  0.21449  0.71530  1.0000
  O  Te46      1.0  0.72515  0.28165  0.83204  1.0000
  H   H82       1.0  0.61567  0.24419  0.52856  1.0000
  Mg  Mg23      1.0  0.75710  0.25807  0.86295  1.0000
  C   C177      1.0  0.79018  0.42494  0.51182  1.0000
  C   C178      1.0  0.79763  0.46177  0.54611  1.0000
  C  Sn47      1.0  0.77292  0.46738  0.64529  1.0000
  C  Sn48      1.0  0.74017  0.43547  0.71123  1.0000
  C   C179      1.0  0.73298  0.39875  0.67629  1.0000
  C   C180      1.0  0.75789  0.39346  0.57686  1.0000
  H   H83       1.0  0.80947  0.42084  0.43497  1.0000
  O  Te47      1.0  0.78078  0.50437  0.67827  1.0000
  O  Te48      1.0  0.71500  0.44027  0.81077  1.0000
  H   H84       1.0  0.75213  0.36494  0.55042  1.0000
  Mg  Mg24      1.0  0.73796  0.49627  0.82047  1.0000
