data_image0
_chemical_formula_structural       H192C156N28O24SnCSn2CSnTe4Mg2SnCSn2CSnTe4Mg2SnCSn2CSnTe4Mg2SnCSn2CSnTe4Mg2SnCSn2CSnTe4Mg2SnCSn2CSnTe4Mg2
_chemical_formula_sum              "H192 C168 N28 O24 Sn24 Te24 Mg12"
_cell_length_a       38.7747
_cell_length_b       38.6793
_cell_length_c       8.95881
_cell_angle_alpha    90.5143
_cell_angle_beta     89.0254
_cell_angle_gamma    120.662

_symmetry_space_group_name_H-M    'P1'
_space_group_IT_number       1

loop_
  _space_group_symop_operation_xyz
  'x, y, z'

loop_
  _atom_site_type_symbol
  _atom_site_label
  _atom_site_symmetry_multiplicity
  _atom_site_fract_x
  _atom_site_fract_y
  _atom_site_fract_z
  _atom_site_occupancy
  H   H1        1.0  0.92764  0.23542  0.51439  1.0000
  H   H2        1.0  0.76755  0.69640  0.46452  1.0000
  H   H3        1.0  0.31248  0.07412  0.51576  1.0000
  H   H4        1.0  0.06797  0.76312  0.01182  1.0000
  H   H5        1.0  0.23352  0.30762  0.00959  1.0000
  H   H6        1.0  0.69465  0.92630  0.01270  1.0000
  H   H7        1.0  0.92382  0.22395  0.31934  1.0000
  H   H8        1.0  0.77918  0.69822  0.26957  1.0000
  H   H9        1.0  0.30326  0.07907  0.32424  1.0000
  H   H10       1.0  0.07556  0.77592  0.81801  1.0000
  H   H11       1.0  0.22309  0.30313  0.81432  1.0000
  H   H12       1.0  0.70263  0.92191  0.81817  1.0000
  H   H13       1.0  0.93154  0.29993  0.45969  1.0000
  H   H14       1.0  0.70300  0.63329  0.42544  1.0000
  H   H15       1.0  0.37600  0.07690  0.43856  1.0000
  H   H16       1.0  0.06550  0.69885  0.95275  1.0000
  H   H17       1.0  0.29807  0.37022  0.96364  1.0000
  H   H18       1.0  0.63373  0.92926  0.95437  1.0000
  H   H19       1.0  0.89181  0.27638  0.22256  1.0000
  H   H20       1.0  0.72564  0.61195  0.19588  1.0000
  H   H21       1.0  0.38414  0.11586  0.19945  1.0000
  H   H22       1.0  0.10748  0.72476  0.71652  1.0000
  H   H23       1.0  0.27665  0.39104  0.73886  1.0000
  H   H24       1.0  0.62004  0.89002  0.71204  1.0000
  H   H25       1.0  0.93330  0.27869  0.13100  1.0000
  H   H26       1.0  0.72282  0.64868  0.09195  1.0000
  H   H27       1.0  0.34798  0.07046  0.11737  1.0000
  H   H28       1.0  0.06576  0.72074  0.62543  1.0000
  H   H29       1.0  0.27908  0.35418  0.63146  1.0000
  H   H30       1.0  0.65883  0.93356  0.62667  1.0000
  H   H31       1.0  0.99426  0.29037  0.27690  1.0000
  H   H32       1.0  0.71407  0.70301  0.22624  1.0000
  H   H33       1.0  0.30067  0.01035  0.28294  1.0000
  H   H34       1.0  0.00451  0.71061  0.77717  1.0000
  H   H35       1.0  0.28789  0.29846  0.77599  1.0000
  H   H36       1.0  0.70895  0.99250  0.78247  1.0000
  H   H37       1.0  0.99436  0.29490  0.47411  1.0000
  H   H38       1.0  0.70746  0.70076  0.42306  1.0000
  H   H39       1.0  0.31306  0.00992  0.47248  1.0000
  H   H40       1.0  0.00251  0.70280  0.97266  1.0000
  H   H41       1.0  0.29645  0.30512  0.97077  1.0000
  H   H42       1.0  0.70172  0.99266  0.97854  1.0000
  H   H43       1.0  0.00123  0.33518  0.36047  1.0000
  H   H44       1.0  0.66832  0.66568  0.30779  1.0000
  H   H45       1.0  0.34337  0.00728  0.32763  1.0000
  H   H46       1.0  0.99655  0.66441  0.84784  1.0000
  H   H47       1.0  0.33401  0.33833  0.84288  1.0000
  H   H48       1.0  0.67016  0.99942  0.85629  1.0000
  H   H49       1.0  0.97410  0.35423  0.17694  1.0000
  H   H50       1.0  0.64769  0.61359  0.14368  1.0000
  H   H51       1.0  0.39343  0.04145  0.15847  1.0000
  H   H52       1.0  0.02730  0.64516  0.66880  1.0000
  H   H53       1.0  0.35275  0.38885  0.65033  1.0000
  H   H54       1.0  0.62057  0.96982  0.67447  1.0000
  H   H55       1.0  0.93246  0.35133  0.27335  1.0000
  H   H56       1.0  0.65102  0.57785  0.25517  1.0000
  H   H57       1.0  0.42874  0.08723  0.24406  1.0000
  H   H58       1.0  0.06860  0.64971  0.76757  1.0000
  H   H59       1.0  0.35276  0.41931  0.79953  1.0000
  H   H60       1.0  0.58316  0.92742  0.77339  1.0000
  H   H61       1.0  0.92962  0.34056  0.07989  1.0000
  H   H62       1.0  0.66082  0.58013  0.06095  1.0000
  H   H63       1.0  0.41795  0.08620  0.05235  1.0000
  H   H64       1.0  0.07332  0.66060  0.57428  1.0000
  H   H65       1.0  0.34143  0.42705  0.61647  1.0000
  H   H66       1.0  0.59023  0.92408  0.57930  1.0000
  H   H67       1.0  0.74949  0.12007  0.35986  1.0000
  H   H68       1.0  0.87977  0.62810  0.36328  1.0000
  H   H69       1.0  0.37568  0.25406  0.37081  1.0000
  H   H70       1.0  0.24925  0.87702  0.88213  1.0000
  H   H71       1.0  0.12217  0.37436  0.86913  1.0000
  H   H72       1.0  0.62589  0.74747  0.83481  1.0000
  H   H73       1.0  0.75481  0.17971  0.50148  1.0000
  H   H74       1.0  0.81888  0.57473  0.49119  1.0000
  H   H75       1.0  0.42805  0.24550  0.51210  1.0000
  H   H76       1.0  0.24553  0.82064  0.00652  1.0000
  H   H77       1.0  0.17842  0.42810  0.00773  1.0000
  H   H78       1.0  0.57233  0.75255  0.97414  1.0000
  H   H79       1.0  0.70650  0.19587  0.54639  1.0000
  H   H80       1.0  0.80190  0.51121  0.54346  1.0000
  H   H81       1.0  0.49274  0.29043  0.57213  1.0000
  H   H82       1.0  0.29289  0.80374  0.04990  1.0000
  H   H83       1.0  0.19564  0.49326  0.05414  1.0000
  H   H84       1.0  0.50760  0.70506  0.01459  1.0000
  H   H85       1.0  0.75493  0.28781  0.29551  1.0000
  H   H86       1.0  0.71187  0.46282  0.29100  1.0000
  H   H87       1.0  0.53673  0.24671  0.30386  1.0000
  H   H88       1.0  0.73174  0.33697  0.28080  1.0000
  H   H89       1.0  0.66406  0.38897  0.27720  1.0000
  H   H90       1.0  0.60983  0.27128  0.27729  1.0000
  H   H91       1.0  0.63397  0.26420  0.58280  1.0000
  H   H92       1.0  0.73642  0.36897  0.58408  1.0000
  H   H93       1.0  0.63537  0.36344  0.60320  1.0000
  H   H94       1.0  0.65698  0.21526  0.59747  1.0000
  H   H95       1.0  0.78363  0.44246  0.59907  1.0000
  H   H96       1.0  0.56264  0.33875  0.63044  1.0000
  H   H97       1.0  0.70752  0.05319  0.42831  1.0000
  H   H98       1.0  0.94649  0.65370  0.44576  1.0000
  H   H99       1.0  0.35323  0.29465  0.45169  1.0000
  H   H100      1.0  0.29041  0.94096  0.95766  1.0000
  H   H101      1.0  0.05732  0.35047  0.93998  1.0000
  H   H102      1.0  0.64431  0.70431  0.90495  1.0000
  H   H103      1.0  0.72992  0.05216  0.25353  1.0000
  H   H104      1.0  0.94536  0.67364  0.26765  1.0000
  H   H105      1.0  0.33290  0.27574  0.27168  1.0000
  H   H106      1.0  0.27046  0.94144  0.77980  1.0000
  H   H107      1.0  0.05718  0.32958  0.76081  1.0000
  H   H108      1.0  0.66821  0.72633  0.73069  1.0000
  H   H109      1.0  0.70732  0.99181  0.50869  1.0000
  H   H110      1.0  0.00907  0.71764  0.50554  1.0000
  H   H111      1.0  0.29458  0.30032  0.52072  1.0000
  H   H112      1.0  0.29560  0.00603  0.02132  1.0000
  H   H113      1.0  0.99309  0.28930  0.00640  1.0000
  H   H114      1.0  0.70099  0.69520  0.97037  1.0000
  H   H115      1.0  0.76538  0.00335  0.34157  1.0000
  H   H116      1.0  0.99480  0.76009  0.32955  1.0000
  H   H117      1.0  0.24677  0.24276  0.35101  1.0000
  H   H118      1.0  0.23992  0.99620  0.84827  1.0000
  H   H119      1.0  0.00425  0.24310  0.83883  1.0000
  H   H120      1.0  0.75308  0.75374  0.82134  1.0000
  H   H121      1.0  0.73312  0.98745  0.18833  1.0000
  H   H122      1.0  0.00987  0.74086  0.17948  1.0000
  H   H123      1.0  0.26627  0.27658  0.19997  1.0000
  H   H124      1.0  0.27355  0.00818  0.69668  1.0000
  H   H125      1.0  0.99321  0.26304  0.68341  1.0000
  H   H126      1.0  0.73275  0.72661  0.65571  1.0000
  H   H127      1.0  0.66384  0.98030  0.21155  1.0000
  H   H128      1.0  0.01354  0.67728  0.21353  1.0000
  H   H129      1.0  0.33093  0.34181  0.21957  1.0000
  H   H130      1.0  0.33858  0.00763  0.72681  1.0000
  H   H131      1.0  0.94977  0.30390  0.85097  1.0000
  H   H132      1.0  0.66631  0.65941  0.66248  1.0000
  H   H133      1.0  0.64672  0.98726  0.38833  1.0000
  H   H134      1.0  0.01231  0.65936  0.39702  1.0000
  H   H135      1.0  0.35557  0.35854  0.39354  1.0000
  H   H136      1.0  0.35343  0.00228  0.90771  1.0000
  H   H137      1.0  0.98697  0.32484  0.70811  1.0000
  H   H138      1.0  0.64034  0.64067  0.83545  1.0000
  H   H139      1.0  0.64959  0.94376  0.35381  1.0000
  H   H140      1.0  0.05409  0.70516  0.33550  1.0000
  H   H141      1.0  0.31099  0.35903  0.36162  1.0000
  H   H142      1.0  0.35566  0.04748  0.85792  1.0000
  H   H143      1.0  0.99500  0.34958  0.88343  1.0000
  H   H144      1.0  0.68407  0.63856  0.79493  1.0000
  H   H145      1.0  0.69067  0.91822  0.30656  1.0000
  H   H146      1.0  0.07976  0.77209  0.28660  1.0000
  H   H147      1.0  0.24106  0.31939  0.31646  1.0000
  H   H148      1.0  0.31889  0.07782  0.80356  1.0000
  H   H149      1.0  0.92258  0.23775  0.79172  1.0000
  H   H150      1.0  0.75077  0.67490  0.73238  1.0000
  H   H151      1.0  0.72155  0.93519  0.46535  1.0000
  H   H152      1.0  0.06389  0.78852  0.44452  1.0000
  H   H153      1.0  0.22741  0.29017  0.48138  1.0000
  H   H154      1.0  0.28733  0.06498  0.96344  1.0000
  H   H155      1.0  0.93467  0.21754  0.94524  1.0000
  H   H156      1.0  0.76835  0.69984  0.90522  1.0000
  H   H157      1.0  0.74154  0.93137  0.29124  1.0000
  H   H158      1.0  0.06580  0.80882  0.26627  1.0000
  H   H159      1.0  0.20128  0.26875  0.31423  1.0000
  H   H160      1.0  0.26950  0.06861  0.78726  1.0000
  H   H161      1.0  0.93253  0.19827  0.76341  1.0000
  H   H162      1.0  0.79361  0.72368  0.73712  1.0000
  H   H163      1.0  0.89175  0.16718  0.46866  1.0000
  H   H164      1.0  0.83444  0.72567  0.44655  1.0000
  H   H165      1.0  0.27706  0.11047  0.47212  1.0000
  H   H166      1.0  0.10615  0.83181  0.97797  1.0000
  H   H167      1.0  0.16546  0.27640  0.96845  1.0000
  H   H168      1.0  0.72514  0.88787  0.97095  1.0000
  H   H169      1.0  0.88059  0.12276  0.65104  1.0000
  H   H170      1.0  0.87604  0.75904  0.64596  1.0000
  H   H171      1.0  0.24287  0.12045  0.66123  1.0000
  H   H172      1.0  0.11647  0.87654  0.16922  1.0000
  H   H173      1.0  0.12016  0.24270  0.15636  1.0000
  H   H174      1.0  0.75646  0.87801  0.14880  1.0000
  H   H175      1.0  0.93016  0.11836  0.77131  1.0000
  H   H176      1.0  0.88110  0.81434  0.76653  1.0000
  H   H177      1.0  0.18580  0.07111  0.78749  1.0000
  H   H178      1.0  0.06645  0.88261  0.28780  1.0000
  H   H179      1.0  0.11469  0.18719  0.27426  1.0000
  H   H180      1.0  0.81103  0.92733  0.27184  1.0000
  H   H181      1.0  0.98746  0.88361  0.63282  1.0000
  H   H182      1.0  0.11992  0.10741  0.63329  1.0000
  H   H183      1.0  0.10455  0.98725  0.14123  1.0000
  H   H184      1.0  0.02525  0.95712  0.66383  1.0000
  H   H185      1.0  0.04621  0.07191  0.65781  1.0000
  H   H186      1.0  0.06949  0.02522  0.16744  1.0000
  H   H187      1.0  0.92538  0.95012  0.90942  1.0000
  H   H188      1.0  0.04835  0.98074  0.92336  1.0000
  H   H189      1.0  0.97467  0.92692  0.41617  1.0000
  H   H190      1.0  0.88667  0.87700  0.86951  1.0000
  H   H191      1.0  0.12179  0.01525  0.89220  1.0000
  H   H192      1.0  0.00877  0.88830  0.38365  1.0000
  C   C1        1.0  0.91769  0.24046  0.40656  1.0000
  C   C2        1.0  0.76224  0.67809  0.36325  1.0000
  C   C3        1.0  0.32681  0.08576  0.40582  1.0000
  C   C4        1.0  0.07977  0.75860  0.90537  1.0000
  C   C5        1.0  0.23932  0.32459  0.90480  1.0000
  C   C6        1.0  0.67968  0.91603  0.90435  1.0000
  C   C7        1.0  0.93923  0.28529  0.37005  1.0000
  C   C8        1.0  0.71743  0.65378  0.33032  1.0000
  C   C9        1.0  0.35192  0.06727  0.35679  1.0000
  C   C10       1.0  0.05854  0.71398  0.86492  1.0000
  C   C11       1.0  0.28426  0.34917  0.87003  1.0000
  C   C12       1.0  0.65686  0.93739  0.86684  1.0000
  C   C13       1.0  0.92474  0.29255  0.22094  1.0000
  C   C14       1.0  0.70945  0.62830  0.18807  1.0000
  C   C15       1.0  0.37151  0.08319  0.20219  1.0000
  C   C16       1.0  0.07454  0.70757  0.71493  1.0000
  C   C17       1.0  0.29256  0.37439  0.72753  1.0000
  C   C18       1.0  0.63575  0.92300  0.71559  1.0000
  C   C19       1.0  0.98473  0.30232  0.37051  1.0000
  C   C20       1.0  0.70096  0.68235  0.32161  1.0000
  C   C21       1.0  0.32581  0.02121  0.36059  1.0000
  C   C22       1.0  0.01306  0.69703  0.86576  1.0000
  C   C23       1.0  0.30154  0.32121  0.86450  1.0000
  C   C24       1.0  0.68602  0.98299  0.87154  1.0000
  C   C25       1.0  0.94124  0.33705  0.18610  1.0000
  C   C26       1.0  0.66489  0.59856  0.16052  1.0000
  C   C27       1.0  0.40452  0.07383  0.16230  1.0000
  C   C28       1.0  0.06000  0.66339  0.67965  1.0000
  C   C29       1.0  0.33729  0.40382  0.69664  1.0000
  C   C30       1.0  0.60602  0.93702  0.68421  1.0000
  C   C31       1.0  0.79159  0.10209  0.42284  1.0000
  C   C32       1.0  0.89786  0.68904  0.42474  1.0000
  C   C33       1.0  0.31440  0.21139  0.43342  1.0000
  C   C34       1.0  0.20717  0.89560  0.94446  1.0000
  C   C35       1.0  0.10263  0.31306  0.92826  1.0000
  C   C36       1.0  0.68617  0.78752  0.90980  1.0000
  C   C37       1.0  0.78050  0.13022  0.38637  1.0000
  C   C38       1.0  0.86986  0.64949  0.38313  1.0000
  C   C39       1.0  0.35399  0.22277  0.39493  1.0000
  C   C40       1.0  0.21801  0.86715  0.90652  1.0000
  C   C41       1.0  0.13152  0.35292  0.89410  1.0000
  C   C42       1.0  0.64759  0.77797  0.86849  1.0000
  C   C43       1.0  0.79730  0.20089  0.32823  1.0000
  C   C44       1.0  0.79979  0.59504  0.31341  1.0000
  C   C45       1.0  0.40770  0.20634  0.33098  1.0000
  C   C46       1.0  0.20102  0.79646  0.84411  1.0000
  C   C47       1.0  0.20270  0.40775  0.84241  1.0000
  C   C48       1.0  0.59597  0.79666  0.81002  1.0000
  C   C49       1.0  0.80898  0.17146  0.37929  1.0000
  C   C50       1.0  0.82920  0.63696  0.36464  1.0000
  C   C51       1.0  0.36613  0.19436  0.38347  1.0000
  C   C52       1.0  0.18919  0.82610  0.89431  1.0000
  C   C53       1.0  0.17251  0.36573  0.88826  1.0000
  C   C54       1.0  0.63651  0.80720  0.86501  1.0000
  C   C55       1.0  0.72190  0.22003  0.46347  1.0000
  C   C56       1.0  0.77838  0.50089  0.45912  1.0000
  C   C57       1.0  0.50208  0.27715  0.48273  1.0000
  C   C58       1.0  0.27787  0.77969  0.96669  1.0000
  C   C59       1.0  0.21934  0.50225  0.96847  1.0000
  C   C60       1.0  0.49923  0.72094  0.93500  1.0000
  C   C61       1.0  0.68144  0.30396  0.43169  1.0000
  C   C62       1.0  0.69703  0.37412  0.43012  1.0000
  C   C63       1.0  0.62729  0.31908  0.43812  1.0000
  C   C64       1.0  0.72859  0.28296  0.35856  1.0000
  C   C65       1.0  0.71681  0.44201  0.35511  1.0000
  C   C66       1.0  0.55862  0.27227  0.36842  1.0000
  C   C67       1.0  0.71562  0.31030  0.35015  1.0000
  C   C68       1.0  0.69035  0.40093  0.34724  1.0000
  C   C69       1.0  0.59922  0.28598  0.35369  1.0000
  C   C70       1.0  0.66036  0.26924  0.51993  1.0000
  C   C71       1.0  0.73114  0.38950  0.51981  1.0000
  C   C72       1.0  0.61371  0.33809  0.53723  1.0000
  C   C73       1.0  0.67346  0.24187  0.52773  1.0000
  C   C74       1.0  0.75756  0.43082  0.52768  1.0000
  C   C75       1.0  0.57287  0.32414  0.55171  1.0000
  C   C76       1.0  0.70788  0.24824  0.44848  1.0000
  C   C77       1.0  0.75087  0.45782  0.44651  1.0000
  C   C78       1.0  0.54463  0.29125  0.46713  1.0000
  C   C79       1.0  0.72656  0.04335  0.37196  1.0000
  C   C80       1.0  0.95555  0.68161  0.38362  1.0000
  C   C81       1.0  0.32518  0.27780  0.38912  1.0000
  C   C82       1.0  0.27334  0.95179  0.89638  1.0000
  C   C83       1.0  0.04674  0.32219  0.87773  1.0000
  C   C84       1.0  0.67356  0.72147  0.84704  1.0000
  C   C85       1.0  0.70796  0.99785  0.38837  1.0000
  C   C86       1.0  0.00111  0.70948  0.38770  1.0000
  C   C87       1.0  0.30079  0.29880  0.40112  1.0000
  C   C88       1.0  0.29474  0.99763  0.90301  1.0000
  C   C89       1.0  0.00104  0.29617  0.88720  1.0000
  C   C90       1.0  0.69629  0.69882  0.85190  1.0000
  C   C91       1.0  0.73401  0.98347  0.30952  1.0000
  C   C92       1.0  0.01454  0.74839  0.29922  1.0000
  C   C93       1.0  0.26038  0.27466  0.32134  1.0000
  C   C94       1.0  0.27187  0.01379  0.81667  1.0000
  C   C95       1.0  0.98643  0.25628  0.80324  1.0000
  C   C96       1.0  0.73757  0.72322  0.77432  1.0000
  C   C97       1.0  0.66468  0.97620  0.33250  1.0000
  C   C98       1.0  0.02131  0.68647  0.33055  1.0000
  C   C99       1.0  0.32606  0.34188  0.34090  1.0000
  C   C100      1.0  0.33797  0.01470  0.84572  1.0000
  C   C101      1.0  0.98225  0.32002  0.82939  1.0000
  C   C102      1.0  0.67025  0.65704  0.78257  1.0000
  C   C103      1.0  0.72106  0.93972  0.34462  1.0000
  C   C104      1.0  0.05837  0.78099  0.32537  1.0000
  C   C105      1.0  0.23114  0.28920  0.35972  1.0000
  C   C106      1.0  0.28788  0.05865  0.84382  1.0000
  C   C107      1.0  0.94165  0.22601  0.82702  1.0000
  C   C108      1.0  0.76379  0.70428  0.78776  1.0000
  C   C109      1.0  0.84937  0.18521  0.41357  1.0000
  C   C110      1.0  0.81595  0.66436  0.39200  1.0000
  C   C111      1.0  0.33864  0.15366  0.41630  1.0000
  C   C112      1.0  0.14841  0.81298  0.92372  1.0000
  C   C113      1.0  0.18511  0.33813  0.91853  1.0000
  C   C114      1.0  0.66438  0.84709  0.90660  1.0000
  C   C115      1.0  0.86047  0.15702  0.44771  1.0000
  C   C116      1.0  0.84413  0.70402  0.43058  1.0000
  C   C117      1.0  0.29890  0.14204  0.45242  1.0000
  C   C118      1.0  0.13760  0.84152  0.96010  1.0000
  C   C119      1.0  0.15616  0.29817  0.95011  1.0000
  C   C120      1.0  0.70312  0.85682  0.94513  1.0000
  C   C121      1.0  0.84588  0.08620  0.47481  1.0000
  C   C122      1.0  0.91459  0.76024  0.47599  1.0000
  C   C123      1.0  0.24293  0.15657  0.48734  1.0000
  C   C124      1.0  0.15334  0.91276  0.99399  1.0000
  C   C125      1.0  0.08501  0.24157  0.97878  1.0000
  C   C126      1.0  0.75698  0.83980  0.98161  1.0000
  C   C127      1.0  0.83231  0.11568  0.45049  1.0000
  C   C128      1.0  0.88485  0.71684  0.44630  1.0000
  C   C129      1.0  0.28631  0.17028  0.45970  1.0000
  C   C130      1.0  0.16628  0.88261  0.96956  1.0000
  C   C131      1.0  0.11514  0.28519  0.95467  1.0000
  C   C132      1.0  0.71458  0.82773  0.94761  1.0000
  C   C133      1.0  0.91933  0.08941  0.71418  1.0000
  C   C134      1.0  0.91081  0.83216  0.71320  1.0000
  C   C135      1.0  0.16908  0.08277  0.72939  1.0000
  C   C136      1.0  0.07854  0.91164  0.23059  1.0000
  C   C137      1.0  0.08606  0.16921  0.21659  1.0000
  C   C138      1.0  0.82883  0.91596  0.21645  1.0000
  C   C139      1.0  0.97807  0.95917  0.78851  1.0000
  C   C140      1.0  0.04177  0.02354  0.79249  1.0000
  C   C141      1.0  0.01923  0.97873  0.29319  1.0000
  C   C142      1.0  0.97403  0.89831  0.69394  1.0000
  C   C143      1.0  0.10395  0.07968  0.69721  1.0000
  C   C144      1.0  0.07614  0.97431  0.20202  1.0000
  C   C145      1.0  0.99535  0.93960  0.71225  1.0000
  C   C146      1.0  0.06262  0.05980  0.71194  1.0000
  C   C147      1.0  0.05645  0.99561  0.21735  1.0000
  C   C148      1.0  0.93909  0.93573  0.84842  1.0000
  C   C149      1.0  0.06391  0.00850  0.85998  1.0000
  C   C150      1.0  0.00306  0.94021  0.35561  1.0000
  C   C151      1.0  0.91739  0.89429  0.82685  1.0000
  C   C152      1.0  0.10543  0.02820  0.84277  1.0000
  C   C153      1.0  0.02265  0.91862  0.33809  1.0000
  C   C154      1.0  0.93425  0.87485  0.74705  1.0000
  C   C155      1.0  0.12621  0.06391  0.75931  1.0000
  C   C156      1.0  0.05938  0.93508  0.25936  1.0000
  N   N1        1.0  0.76493  0.19810  0.40980  1.0000
  N   N2        1.0  0.80084  0.56571  0.39973  1.0000
  N   N3        1.0  0.43715  0.23692  0.41799  1.0000
  N   N4        1.0  0.23465  0.80117  0.91815  1.0000
  N   N5        1.0  0.19780  0.43677  0.91812  1.0000
  N   N6        1.0  0.56496  0.76373  0.88489  1.0000
  N   N7        1.0  0.75187  0.22404  0.38330  1.0000
  N   N8        1.0  0.77495  0.52601  0.37466  1.0000
  N   N9        1.0  0.47653  0.24990  0.39327  1.0000
  N   N10       1.0  0.24797  0.77543  0.88961  1.0000
  N   N11       1.0  0.22343  0.47628  0.88975  1.0000
  N   N12       1.0  0.52595  0.75134  0.85769  1.0000
  N   N13       1.0  0.87363  0.09775  0.58894  1.0000
  N   N14       1.0  0.90199  0.77700  0.58695  1.0000
  N   N15       1.0  0.22548  0.12822  0.60180  1.0000
  N   N16       1.0  0.12490  0.90201  0.10838  1.0000
  N   N17       1.0  0.09562  0.22463  0.09295  1.0000
  N   N18       1.0  0.77384  0.86913  0.09261  1.0000
  N   N19       1.0  0.89102  0.07571  0.61661  1.0000
  N   N20       1.0  0.92478  0.81685  0.61749  1.0000
  N   N21       1.0  0.18570  0.11143  0.63162  1.0000
  N   N22       1.0  0.10806  0.92484  0.13497  1.0000
  N   N23       1.0  0.07316  0.18454  0.11963  1.0000
  N   N24       1.0  0.81348  0.88649  0.12171  1.0000
  N   N25       1.0  0.66875  0.33234  0.42499  1.0000
  N   N26       1.0  0.33310  0.66918  0.91261  1.0000
  N   N27       1.0  0.99915  0.00177  0.80036  1.0000
  N   N28       1.0  0.99783  0.99956  0.30200  1.0000
  O   O1        1.0  0.81380  0.22430  0.22400  1.0000
  O   O2        1.0  0.77760  0.58707  0.20663  1.0000
  O   O3        1.0  0.41506  0.19128  0.22304  1.0000
  O   O4        1.0  0.18382  0.77096  0.74734  1.0000
  O   O5        1.0  0.22866  0.41627  0.74578  1.0000
  O   O6        1.0  0.59049  0.81445  0.70903  1.0000
  O   O7        1.0  0.76541  0.06190  0.43983  1.0000
  O   O8        1.0  0.93737  0.70261  0.45114  1.0000
  O   O9        1.0  0.30126  0.23795  0.45120  1.0000
  O   O10       1.0  0.23403  0.93564  0.96280  1.0000
  O   O11       1.0  0.06257  0.29915  0.94153  1.0000
  O   O12       1.0  0.69778  0.75977  0.91888  1.0000
  O   O13       1.0  0.83507  0.05579  0.39950  1.0000
  O   O14       1.0  0.94638  0.77967  0.40639  1.0000
  O   O15       1.0  0.22412  0.16818  0.41506  1.0000
  O   O16       1.0  0.16556  0.94323  0.91820  1.0000
  O   O17       1.0  0.05497  0.22224  0.90302  1.0000
  O   O18       1.0  0.77587  0.82639  0.91710  1.0000
  O   O19       1.0  0.87517  0.22579  0.41428  1.0000
  O   O20       1.0  0.77569  0.64983  0.38493  1.0000
  O   O21       1.0  0.35380  0.12865  0.41462  1.0000
  O   O22       1.0  0.12194  0.77262  0.91856  1.0000
  O   O23       1.0  0.22535  0.35267  0.91894  1.0000
  O   O24       1.0  0.65090  0.87348  0.91074  1.0000
  C  Sn1       1.0  0.98518  0.06366  0.88720  1.0000
  C   C157      1.0  0.97393  0.02519  0.83526  1.0000
  C  Sn2       1.0  0.94564  0.00738  0.72258  1.0000
  C  Sn3       1.0  0.92825  0.02847  0.66044  1.0000
  C   C158      1.0  0.93951  0.06692  0.71236  1.0000
  C  Sn4       1.0  0.96780  0.08475  0.82506  1.0000
  O  Te1       1.0  0.01352  0.08088  0.99993  1.0000
  O  Te2       1.0  0.44356  0.96889  0.67252  1.0000
  O  Te3       1.0  0.89989  0.01122  0.54763  1.0000
  O  Te4       1.0  0.97859  0.12322  0.87510  1.0000
  Mg  Mg1       1.0  0.40368  0.95815  0.51675  1.0000
  Mg  Mg2       1.0  0.02237  0.13390  0.03080  1.0000
  C  Sn5       1.0  0.29713  0.59131  0.79853  1.0000
  C   C159      1.0  0.29808  0.62315  0.87717  1.0000
  C  Sn6       1.0  0.27857  0.61574  0.00638  1.0000
  C  Sn7       1.0  0.25373  0.57577  0.05815  1.0000
  C   C160      1.0  0.24890  0.54406  0.97954  1.0000
  C  Sn8       1.0  0.27228  0.55134  0.85029  1.0000
  O  Te5       1.0  0.32076  0.59932  0.66962  1.0000
  O  Te6       1.0  0.28002  0.64806  0.08308  1.0000
  O  Te7       1.0  0.23008  0.56778  0.18716  1.0000
  O  Te8       1.0  0.27085  0.51905  0.77363  1.0000
  Mg  Mg3       1.0  0.24235  0.62184  0.25295  1.0000
  Mg  Mg4       1.0  0.30852  0.54524  0.60380  1.0000
  C  Sn9       1.0  0.05879  0.07642  0.39194  1.0000
  C   C161      1.0  0.02092  0.04854  0.33794  1.0000
  C  Sn10      1.0  0.00419  0.05892  0.22229  1.0000
  C  Sn11      1.0  0.02578  0.09798  0.15922  1.0000
  C   C162      1.0  0.06363  0.12583  0.21320  1.0000
  C  Sn12      1.0  0.08038  0.11548  0.32887  1.0000
  O  Te9       1.0  0.07494  0.06539  0.50763  1.0000
  O  Te10      1.0  0.96628  0.03053  0.17021  1.0000
  O  Te11      1.0  0.00960  0.10899  0.04345  1.0000
  O  Te12      1.0  0.11827  0.14384  0.38093  1.0000
  Mg  Mg5       1.0  0.95699  0.05983  0.01066  1.0000
  Mg  Mg6       1.0  0.12760  0.11457  0.54042  1.0000
  C  Sn13      1.0  0.43637  0.73466  0.86580  1.0000
  C   C163      1.0  0.45462  0.71680  0.94087  1.0000
  C  Sn14      1.0  0.43167  0.67758  0.99514  1.0000
  C  Sn15      1.0  0.38962  0.65574  0.97386  1.0000
  C   C164      1.0  0.37140  0.67360  0.89882  1.0000
  C  Sn16      1.0  0.39432  0.71283  0.84452  1.0000
  O  Te13      1.0  0.45990  0.77391  0.81249  1.0000
  O  Te14      1.0  0.45446  0.66026  0.06988  1.0000
  O  Te15      1.0  0.36997  0.61638  0.02726  1.0000
  O  Te16      1.0  0.37543  0.73004  0.76981  1.0000
  Mg  Mg7       1.0  0.40956  0.60596  0.12186  1.0000
  Mg  Mg8       1.0  0.42030  0.78433  0.71771  1.0000
  C  Sn17      1.0  0.33299  0.73310  0.05675  1.0000
  C   C165      1.0  0.31377  0.69854  0.96896  1.0000
  C  Sn18      1.0  0.28697  0.69191  0.85483  1.0000
  C  Sn19      1.0  0.27526  0.72053  0.82781  1.0000
  C   C166      1.0  0.29059  0.75517  0.91555  1.0000
  C  Sn20      1.0  0.32128  0.76172  0.02973  1.0000
  O  Te17      1.0  0.35975  0.73910  0.17024  1.0000
  O  Te18      1.0  0.27203  0.65703  0.76858  1.0000
  O  Te19      1.0  0.24847  0.71450  0.71422  1.0000
  O  Te20      1.0  0.33622  0.79658  0.11594  1.0000
  Mg  Mg9       1.0  0.23637  0.66236  0.62692  1.0000
  Mg  Mg10      1.0  0.37189  0.79129  0.25756  1.0000
  C  Sn21      1.0  0.90089  0.98498  0.30050  1.0000
  C   C167      1.0  0.87693  0.94864  0.22627  1.0000
  C  Sn22      1.0  0.89174  0.92329  0.19151  1.0000
  C  Sn23      1.0  0.93131  0.93447  0.23186  1.0000
  C   C168      1.0  0.95525  0.97078  0.30607  1.0000
  C  Sn24      1.0  0.94047  0.99616  0.34086  1.0000
  O  Te21      1.0  0.37675  0.00986  0.33414  1.0000
  O  Te22      1.0  0.86723  0.88712  0.11720  1.0000
  O  Te23      1.0  0.94673  0.90955  0.19815  1.0000
  O  Te24      1.0  0.45624  0.03230  0.41514  1.0000
  Mg  Mg11      1.0  0.90178  0.86336  0.09591  1.0000
  Mg  Mg12      1.0  0.42171  0.05607  0.43655  1.0000
