data_image0
_chemical_formula_structural       H48C66N24O12C2Sn2C2HTe2HMgC2Sn2C2HTe2HMgC2Sn2C2HTe2HMg
_chemical_formula_sum              "H54 C78 N24 O12 Sn6 Te6 Mg3"
_cell_length_a       30.4732
_cell_length_b       30.07
_cell_length_c       9.6756
_cell_angle_alpha    138.481
_cell_angle_beta     66.9027
_cell_angle_gamma    120.392

_symmetry_space_group_name_H-M    'P1'
_space_group_IT_number       1

loop_
  _space_group_symop_operation_xyz
  'x, y, z'

loop_
  _atom_site_type_symbol
  _atom_site_label
  _atom_site_symmetry_multiplicity
  _atom_site_fract_x
  _atom_site_fract_y
  _atom_site_fract_z
  _atom_site_occupancy
  H   H1        1.0  0.93269  0.54935  0.08346  1.0000
  H   H2        1.0  0.05902  0.46279  0.95979  1.0000
  H   H3        1.0  0.26490  0.69921  0.02383  1.0000
  H   H4        1.0  0.29523  0.57599  0.03291  1.0000
  H   H5        1.0  0.41937  0.72029  0.98145  1.0000
  H   H6        1.0  0.72823  0.30199  0.98446  1.0000
  H   H7        1.0  0.69483  0.42159  0.96968  1.0000
  H   H8        1.0  0.57274  0.27302  0.00884  1.0000
  H   H9        1.0  0.20691  0.57963  0.11643  1.0000
  H   H10       1.0  0.43793  0.65039  0.97543  1.0000
  H   H11       1.0  0.33362  0.77897  0.98776  1.0000
  H   H12       1.0  0.78477  0.42140  0.89374  1.0000
  H   H13       1.0  0.55171  0.33856  0.00823  1.0000
  H   H14       1.0  0.66067  0.22462  0.03333  1.0000
  H   H15       1.0  0.02424  0.59887  0.01760  1.0000
  H   H16       1.0  0.96785  0.41368  0.02534  1.0000
  H   H17       1.0  0.45649  0.58651  0.96762  1.0000
  H   H18       1.0  0.39641  0.85592  0.96878  1.0000
  H   H19       1.0  0.12656  0.56254  0.10890  1.0000
  H   H20       1.0  0.52982  0.40029  0.01387  1.0000
  H   H21       1.0  0.59732  0.14780  0.05831  1.0000
  H   H22       1.0  0.86645  0.43716  0.89861  1.0000
  H   H23       1.0  0.94108  0.53898  0.55576  1.0000
  H   H24       1.0  0.48885  0.41467  0.49482  1.0000
  H   H25       1.0  0.06734  0.45526  0.44672  1.0000
  H   H26       1.0  0.53299  0.59908  0.49868  1.0000
  H   H27       1.0  0.27037  0.69688  0.51975  1.0000
  H   H28       1.0  0.30786  0.57953  0.53245  1.0000
  H   H29       1.0  0.42708  0.72840  0.48920  1.0000
  H   H30       1.0  0.73350  0.29884  0.47625  1.0000
  H   H31       1.0  0.70732  0.42500  0.46800  1.0000
  H   H32       1.0  0.58059  0.27996  0.51121  1.0000
  H   H33       1.0  0.21714  0.57943  0.61453  1.0000
  H   H34       1.0  0.45037  0.66572  0.49713  1.0000
  H   H35       1.0  0.33610  0.77571  0.47463  1.0000
  H   H36       1.0  0.79474  0.42121  0.39165  1.0000
  H   H37       1.0  0.56404  0.35232  0.52301  1.0000
  H   H38       1.0  0.66315  0.22308  0.52613  1.0000
  H   H39       1.0  0.42049  0.43743  0.50043  1.0000
  H   H40       1.0  0.03245  0.58775  0.48962  1.0000
  H   H41       1.0  0.60144  0.57576  0.49097  1.0000
  H   H42       1.0  0.97569  0.40632  0.51368  1.0000
  H   H43       1.0  0.47307  0.60291  0.48469  1.0000
  H   H44       1.0  0.39757  0.85306  0.44866  1.0000
  H   H45       1.0  0.13461  0.56453  0.61705  1.0000
  H   H46       1.0  0.54701  0.41843  0.53735  1.0000
  H   H47       1.0  0.59868  0.14846  0.55131  1.0000
  H   H48       1.0  0.87448  0.43956  0.40597  1.0000
  C   C1        1.0  0.29216  0.68497  0.01996  1.0000
  C   C2        1.0  0.30840  0.61495  0.02433  1.0000
  C   C3        1.0  0.37881  0.69602  0.99551  1.0000
  C   C4        1.0  0.70037  0.31459  0.98501  1.0000
  C   C5        1.0  0.68230  0.38227  0.97619  1.0000
  C   C6        1.0  0.61316  0.29889  0.99866  1.0000
  C   C7        1.0  0.21931  0.60099  0.04693  1.0000
  C   C8        1.0  0.39758  0.62551  0.99530  1.0000
  C   C9        1.0  0.36257  0.76926  0.99515  1.0000
  C   C10       1.0  0.77236  0.40031  0.96387  1.0000
  C   C11       1.0  0.59170  0.36615  0.99425  1.0000
  C   C12       1.0  0.63149  0.22984  0.01076  1.0000
  C   C13       1.0  0.04727  0.53468  0.98667  1.0000
  C   C14       1.0  0.94446  0.47709  0.05415  1.0000
  C   C15       1.0  0.03156  0.48215  0.98783  1.0000
  C   C16       1.0  0.96020  0.52997  0.05436  1.0000
  C   C17       1.0  0.27388  0.63405  0.03034  1.0000
  C   C18       1.0  0.36102  0.64528  0.00445  1.0000
  C   C19       1.0  0.34451  0.71671  0.00525  1.0000
  C   C20       1.0  0.71769  0.36545  0.97522  1.0000
  C   C21       1.0  0.62975  0.34930  0.98937  1.0000
  C   C22       1.0  0.64834  0.28094  0.99570  1.0000
  C   C23       1.0  0.01132  0.55828  0.01955  1.0000
  C   C24       1.0  0.98047  0.45386  0.02218  1.0000
  C   C25       1.0  0.40755  0.51622  0.00606  1.0000
  C   C26       1.0  0.47508  0.88175  0.95496  1.0000
  C   C27       1.0  0.10123  0.56522  0.94434  1.0000
  C   C28       1.0  0.57736  0.47437  0.98960  1.0000
  C   C29       1.0  0.51949  0.10799  0.01554  1.0000
  C   C30       1.0  0.89040  0.44540  0.09306  1.0000
  C   C31       1.0  0.29908  0.68493  0.51717  1.0000
  C   C32       1.0  0.31927  0.61822  0.52431  1.0000
  C   C33       1.0  0.38690  0.70192  0.50000  1.0000
  C   C34       1.0  0.70708  0.31379  0.47900  1.0000
  C   C35       1.0  0.69312  0.38512  0.47380  1.0000
  C   C36       1.0  0.62132  0.30372  0.49842  1.0000
  C   C37       1.0  0.22864  0.59995  0.54340  1.0000
  C   C38       1.0  0.41044  0.63611  0.50458  1.0000
  C   C39       1.0  0.36631  0.76959  0.48863  1.0000
  C   C40       1.0  0.78146  0.39897  0.45892  1.0000
  C   C41       1.0  0.60465  0.37669  0.50305  1.0000
  C   C42       1.0  0.63524  0.23037  0.50475  1.0000
  C   C43       1.0  0.47125  0.51912  0.49999  1.0000
  C   C44       1.0  0.05570  0.52547  0.46625  1.0000
  C   C45       1.0  0.55071  0.49539  0.49662  1.0000
  C   C46       1.0  0.95269  0.46872  0.53643  1.0000
  C   C47       1.0  0.52252  0.55880  0.49948  1.0000
  C   C48       1.0  0.03985  0.47396  0.47191  1.0000
  C   C49       1.0  0.49943  0.45554  0.49650  1.0000
  C   C50       1.0  0.96852  0.52022  0.53078  1.0000
  C   C51       1.0  0.28303  0.63459  0.52800  1.0000
  C   C52       1.0  0.37154  0.65179  0.50916  1.0000
  C   C53       1.0  0.35081  0.71898  0.50413  1.0000
  C   C54       1.0  0.72664  0.36535  0.47024  1.0000
  C   C55       1.0  0.64026  0.35511  0.49113  1.0000
  C   C56       1.0  0.65454  0.28234  0.49117  1.0000
  C   C57       1.0  0.46036  0.46735  0.49849  1.0000
  C   C58       1.0  0.01967  0.54821  0.49562  1.0000
  C   C59       1.0  0.56158  0.54679  0.49691  1.0000
  C   C60       1.0  0.98871  0.44598  0.50767  1.0000
  C   C61       1.0  0.42564  0.52648  0.50168  1.0000
  C   C62       1.0  0.47665  0.88647  0.45950  1.0000
  C   C63       1.0  0.10965  0.55600  0.42331  1.0000
  C   C64       1.0  0.59582  0.48641  0.49127  1.0000
  C   C65       1.0  0.52095  0.11145  0.51405  1.0000
  C   C66       1.0  0.89838  0.43723  0.57475  1.0000
  N   N1        1.0  0.18765  0.59876  0.98187  1.0000
  N   N2        1.0  0.38268  0.58080  0.01097  1.0000
  N   N3        1.0  0.41087  0.80094  0.98818  1.0000
  N   N4        1.0  0.80413  0.40455  0.03457  1.0000
  N   N5        1.0  0.60487  0.41127  0.98162  1.0000
  N   N6        1.0  0.58351  0.19401  0.00345  1.0000
  N   N7        1.0  0.41990  0.56637  0.00147  1.0000
  N   N8        1.0  0.42413  0.84760  0.97364  1.0000
  N   N9        1.0  0.13709  0.57002  0.01032  1.0000
  N   N10       1.0  0.56631  0.42238  0.98471  1.0000
  N   N11       1.0  0.57037  0.14899  0.02433  1.0000
  N   N12       1.0  0.85478  0.43503  0.01063  1.0000
  N   N13       1.0  0.19605  0.59555  0.47569  1.0000
  N   N14       1.0  0.39777  0.58921  0.50938  1.0000
  N   N15       1.0  0.41406  0.80374  0.48525  1.0000
  N   N16       1.0  0.81245  0.40126  0.52675  1.0000
  N   N17       1.0  0.62037  0.42234  0.49041  1.0000
  N   N18       1.0  0.58681  0.19613  0.49783  1.0000
  N   N19       1.0  0.43648  0.57818  0.50542  1.0000
  N   N20       1.0  0.42579  0.84883  0.46640  1.0000
  N   N21       1.0  0.14561  0.56584  0.50346  1.0000
  N   N22       1.0  0.58368  0.43807  0.50244  1.0000
  N   N23       1.0  0.57223  0.15075  0.51887  1.0000
  N   N24       1.0  0.86317  0.43148  0.50352  1.0000
  O   O1        1.0  0.36356  0.48263  0.01669  1.0000
  O   O2        1.0  0.50936  0.86632  0.93145  1.0000
  O   O3        1.0  0.11233  0.58494  0.85426  1.0000
  O   O4        1.0  0.62102  0.51100  0.98899  1.0000
  O   O5        1.0  0.48468  0.11613  0.01025  1.0000
  O   O6        1.0  0.87912  0.42980  0.19441  1.0000
  O   O7        1.0  0.38197  0.49058  0.50561  1.0000
  O   O8        1.0  0.51162  0.87497  0.44936  1.0000
  O   O9        1.0  0.12053  0.57131  0.32127  1.0000
  O   O10       1.0  0.63985  0.51840  0.47333  1.0000
  O   O11       1.0  0.48680  0.12126  0.51236  1.0000
  O   O12       1.0  0.88595  0.41672  0.66348  1.0000
  C   C67       1.0  0.44276  0.97361  0.01929  1.0000
  C   C68       1.0  0.46760  0.17858  0.96936  1.0000
  C  Sn1       1.0  0.52021  0.20439  0.94352  1.0000
  C  Sn2       1.0  0.04326  0.26438  0.96828  1.0000
  C   C69       1.0  0.01808  0.05908  0.01839  1.0000
  C   C70       1.0  0.96548  0.03280  0.04382  1.0000
  H   H49       1.0  0.40206  0.95331  0.03909  1.0000
  O  Te1       1.0  0.55022  0.17077  0.89356  1.0000
  O  Te2       1.0  0.09574  0.29129  0.94342  1.0000
  H   H50       1.0  0.94180  0.05839  0.08262  1.0000
  Mg  Mg1       1.0  0.12068  0.22717  0.87554  1.0000
  C   C71       1.0  0.05240  0.02282  0.46418  1.0000
  C   C72       1.0  0.02094  0.04901  0.48510  1.0000
  C  Sn3       1.0  0.96840  0.02359  0.51287  1.0000
  C  Sn4       1.0  0.94706  0.97099  0.51981  1.0000
  C   C73       1.0  0.97886  0.94517  0.49888  1.0000
  C   C74       1.0  0.03139  0.97096  0.47109  1.0000
  H   H51       1.0  0.09305  0.04280  0.44279  1.0000
  O  Te3       1.0  0.93752  0.05031  0.53343  1.0000
  O  Te4       1.0  0.89467  0.94468  0.54747  1.0000
  H   H52       1.0  0.05574  0.95071  0.45503  1.0000
  Mg  Mg2       1.0  0.86834  0.99771  0.56805  1.0000
  C   C75       1.0  0.44599  0.43629  0.95678  1.0000
  C   C76       1.0  0.45463  0.25660  0.00469  1.0000
  C  Sn5       1.0  0.50183  0.30805  0.03442  1.0000
  C  Sn6       1.0  0.54693  0.30088  0.01569  1.0000
  C   C77       1.0  0.53788  0.48033  0.96756  1.0000
  C   C78       1.0  0.49045  0.42917  0.93819  1.0000
  H   H53       1.0  0.40930  0.39668  0.93394  1.0000
  O  Te5       1.0  0.50402  0.36595  0.08228  1.0000
  O  Te6       1.0  0.59460  0.35152  0.04454  1.0000
  H   H54       1.0  0.48824  0.38403  0.90097  1.0000
  Mg  Mg3       1.0  0.57790  0.42098  0.10745  1.0000
