data_image0
_chemical_formula_structural       H60C84N36O12SnCSn2CSnTe4Mg2SnCSn2CSnTe4Mg2SnCSn2CSnTe4Mg2SnCSn2CSnTe4Mg2SnCSn2CSnTe4Mg2SnCSn2CSnTe4Mg2
_chemical_formula_sum              "H60 C96 N36 O12 Sn24 Te24 Mg12"
_cell_length_a       30.3108
_cell_length_b       30.3905
_cell_length_c       9.23029
_cell_angle_alpha    43.5937
_cell_angle_beta     106.196
_cell_angle_gamma    120.529

_symmetry_space_group_name_H-M    'P1'
_space_group_IT_number       1

loop_
  _space_group_symop_operation_xyz
  'x, y, z'

loop_
  _atom_site_type_symbol
  _atom_site_label
  _atom_site_symmetry_multiplicity
  _atom_site_fract_x
  _atom_site_fract_y
  _atom_site_fract_z
  _atom_site_occupancy
  H   H1        1.0  0.85123  0.22793  0.01023  1.0000
  H   H2        1.0  0.28401  0.72371  0.03248  1.0000
  H   H3        1.0  0.22538  0.59397  0.98254  1.0000
  H   H4        1.0  0.41482  0.43495  0.12230  1.0000
  H   H5        1.0  0.47376  0.61220  0.08413  1.0000
  H   H6        1.0  0.73690  0.31102  0.11516  1.0000
  H   H7        1.0  0.79205  0.45600  0.10923  1.0000
  H   H8        1.0  0.59995  0.59402  0.01852  1.0000
  H   H9        1.0  0.54224  0.41463  0.08243  1.0000
  H   H10       1.0  0.53321  0.61527  0.03052  1.0000
  H   H11       1.0  0.82336  0.66160  0.09572  1.0000
  H   H12       1.0  0.31154  0.59184  0.06007  1.0000
  H   H13       1.0  0.45552  0.67629  0.07401  1.0000
  H   H14       1.0  0.58020  0.97488  0.15370  1.0000
  H   H15       1.0  0.41644  0.88503  0.06004  1.0000
  H   H16       1.0  0.70588  0.44268  0.07682  1.0000
  H   H17       1.0  0.56294  0.35651  0.06563  1.0000
  H   H18       1.0  0.45268  0.05632  0.99259  1.0000
  H   H19       1.0  0.61089  0.14320  0.10344  1.0000
  H   H20       1.0  0.42806  0.96094  0.01505  1.0000
  H   H21       1.0  0.36934  0.15485  0.19283  1.0000
  H   H22       1.0  0.43748  0.74467  0.07006  1.0000
  H   H23       1.0  0.35395  0.80997  0.03952  1.0000
  H   H24       1.0  0.03435  0.59287  0.15921  1.0000
  H   H25       1.0  0.14308  0.58022  0.98738  1.0000
  H   H26       1.0  0.58248  0.28777  0.07075  1.0000
  H   H27       1.0  0.66989  0.22236  0.12344  1.0000
  H   H28       1.0  0.97937  0.39898  0.20436  1.0000
  H   H29       1.0  0.87469  0.46942  0.14917  1.0000
  H   H30       1.0  0.07243  0.46596  0.19940  1.0000
  H   H31       1.0  0.84696  0.22186  0.50780  1.0000
  H   H32       1.0  0.27965  0.71856  0.53642  1.0000
  H   H33       1.0  0.21807  0.58900  0.48722  1.0000
  H   H34       1.0  0.40768  0.42666  0.62241  1.0000
  H   H35       1.0  0.46539  0.60045  0.59893  1.0000
  H   H36       1.0  0.73184  0.30217  0.62842  1.0000
  H   H37       1.0  0.78467  0.44285  0.63878  1.0000
  H   H38       1.0  0.59241  0.58361  0.53104  1.0000
  H   H39       1.0  0.53563  0.40511  0.59112  1.0000
  H   H40       1.0  0.52536  0.60343  0.54811  1.0000
  H   H41       1.0  0.81274  0.64941  0.61054  1.0000
  H   H42       1.0  0.30349  0.58368  0.56728  1.0000
  H   H43       1.0  0.44785  0.66551  0.58373  1.0000
  H   H44       1.0  0.57641  0.96856  0.65517  1.0000
  H   H45       1.0  0.41278  0.87911  0.56006  1.0000
  H   H46       1.0  0.69992  0.43403  0.58628  1.0000
  H   H47       1.0  0.55729  0.34864  0.56898  1.0000
  H   H48       1.0  0.44930  0.05135  0.48810  1.0000
  H   H49       1.0  0.60714  0.13827  0.59944  1.0000
  H   H50       1.0  0.42526  0.95745  0.50423  1.0000
  H   H51       1.0  0.36316  0.14747  0.69002  1.0000
  H   H52       1.0  0.43192  0.73630  0.57307  1.0000
  H   H53       1.0  0.35032  0.80457  0.53965  1.0000
  H   H54       1.0  0.02818  0.58813  0.66474  1.0000
  H   H55       1.0  0.13803  0.57594  0.49664  1.0000
  H   H56       1.0  0.57790  0.28194  0.56691  1.0000
  H   H57       1.0  0.66581  0.21691  0.62079  1.0000
  H   H58       1.0  0.97589  0.39841  0.69383  1.0000
  H   H59       1.0  0.86851  0.46097  0.66359  1.0000
  H   H60       1.0  0.06838  0.46454  0.69586  1.0000
  C   C1        1.0  0.31072  0.70792  0.04230  1.0000
  C   C2        1.0  0.23647  0.61863  0.04161  1.0000
  C   C3        1.0  0.46814  0.52561  0.07853  1.0000
  C   C4        1.0  0.52087  0.57102  0.04781  1.0000
  C   C5        1.0  0.29148  0.65376  0.04680  1.0000
  C   C6        1.0  0.45538  0.47011  0.09918  1.0000
  C   C7        1.0  0.42311  0.53106  0.09191  1.0000
  C   C8        1.0  0.70969  0.32668  0.10232  1.0000
  C   C9        1.0  0.78125  0.41396  0.11679  1.0000
  C   C10       1.0  0.54682  0.50398  0.06192  1.0000
  C   C11       1.0  0.49356  0.45842  0.09195  1.0000
  C   C12       1.0  0.72773  0.38068  0.09734  1.0000
  C   C13       1.0  0.55905  0.55985  0.04030  1.0000
  C   C14       1.0  0.59339  0.50120  0.04420  1.0000
  C   C15       1.0  0.32531  0.63304  0.05831  1.0000
  C   C16       1.0  0.41471  0.64661  0.07418  1.0000
  C   C17       1.0  0.50246  0.95877  0.09412  1.0000
  C   C18       1.0  0.46668  0.98312  0.04442  1.0000
  C   C19       1.0  0.37817  0.66546  0.06787  1.0000
  C   C20       1.0  0.55200  0.99244  0.11882  1.0000
  C   C21       1.0  0.49232  0.90034  0.11579  1.0000
  C   C22       1.0  0.69321  0.40188  0.07795  1.0000
  C   C23       1.0  0.60383  0.38729  0.06101  1.0000
  C   C24       1.0  0.52943  0.07086  0.05847  1.0000
  C   C25       1.0  0.56650  0.04915  0.09640  1.0000
  C   C26       1.0  0.64066  0.36876  0.06768  1.0000
  C   C27       1.0  0.48006  0.03732  0.02984  1.0000
  C   C28       1.0  0.53630  0.12707  0.04284  1.0000
  C   C29       1.0  0.39664  0.71847  0.06569  1.0000
  C   C30       1.0  0.38199  0.79486  0.05229  1.0000
  C   C31       1.0  0.06003  0.53556  0.17371  1.0000
  C   C32       1.0  0.04429  0.48006  0.18837  1.0000
  C   C33       1.0  0.36313  0.74027  0.05216  1.0000
  C   C34       1.0  0.02297  0.55139  0.16511  1.0000
  C   C35       1.0  0.11454  0.57514  0.18236  1.0000
  C   C36       1.0  0.62313  0.31486  0.07449  1.0000
  C   C37       1.0  0.64061  0.23738  0.10000  1.0000
  C   C38       1.0  0.95448  0.45787  0.18073  1.0000
  C   C39       1.0  0.97053  0.51406  0.16621  1.0000
  C   C40       1.0  0.65756  0.29338  0.09218  1.0000
  C   C41       1.0  0.99239  0.44214  0.19280  1.0000
  C   C42       1.0  0.90056  0.41187  0.18244  1.0000
  C   C43       1.0  0.30570  0.70188  0.54665  1.0000
  C   C44       1.0  0.23015  0.61273  0.54978  1.0000
  C   C45       1.0  0.46054  0.51528  0.58859  1.0000
  C   C46       1.0  0.51319  0.56016  0.56090  1.0000
  C   C47       1.0  0.28538  0.64717  0.55308  1.0000
  C   C48       1.0  0.44812  0.46105  0.60358  1.0000
  C   C49       1.0  0.41521  0.51983  0.60453  1.0000
  C   C50       1.0  0.70460  0.31858  0.61101  1.0000
  C   C51       1.0  0.77524  0.40461  0.63137  1.0000
  C   C52       1.0  0.53963  0.49448  0.56985  1.0000
  C   C53       1.0  0.48644  0.44951  0.59654  1.0000
  C   C54       1.0  0.72213  0.37222  0.60724  1.0000
  C   C55       1.0  0.55157  0.54960  0.55149  1.0000
  C   C56       1.0  0.58638  0.49198  0.55185  1.0000
  C   C57       1.0  0.31826  0.62529  0.56454  1.0000
  C   C58       1.0  0.40694  0.63618  0.58379  1.0000
  C   C59       1.0  0.49901  0.95345  0.59113  1.0000
  C   C60       1.0  0.46334  0.97822  0.53943  1.0000
  C   C61       1.0  0.37126  0.65672  0.57437  1.0000
  C   C62       1.0  0.54814  0.98594  0.62082  1.0000
  C   C63       1.0  0.48919  0.89615  0.60789  1.0000
  C   C64       1.0  0.68753  0.39370  0.58563  1.0000
  C   C65       1.0  0.59803  0.37919  0.56631  1.0000
  C   C66       1.0  0.52554  0.06448  0.55966  1.0000
  C   C67       1.0  0.56245  0.04207  0.60107  1.0000
  C   C68       1.0  0.63521  0.36124  0.57189  1.0000
  C   C69       1.0  0.47646  0.03179  0.52735  1.0000
  C   C70       1.0  0.53209  0.12032  0.54519  1.0000
  C   C71       1.0  0.39089  0.71057  0.56961  1.0000
  C   C72       1.0  0.37815  0.78946  0.55080  1.0000
  C   C73       1.0  0.05481  0.53221  0.67622  1.0000
  C   C74       1.0  0.03990  0.47803  0.68575  1.0000
  C   C75       1.0  0.35839  0.73390  0.55424  1.0000
  C   C76       1.0  0.01733  0.54741  0.66785  1.0000
  C   C77       1.0  0.10894  0.57086  0.68996  1.0000
  C   C78       1.0  0.61830  0.30835  0.57469  1.0000
  C   C79       1.0  0.63643  0.23158  0.59887  1.0000
  C   C80       1.0  0.94992  0.45528  0.67612  1.0000
  C   C81       1.0  0.96518  0.51039  0.66563  1.0000
  C   C82       1.0  0.65289  0.28673  0.59429  1.0000
  C   C83       1.0  0.98829  0.44048  0.68661  1.0000
  C   C84       1.0  0.89656  0.40999  0.67239  1.0000
  N   N1        1.0  0.61819  0.08697  0.10459  1.0000
  N   N2        1.0  0.65095  0.07635  0.08483  1.0000
  N   N3        1.0  0.20283  0.61701  0.10864  1.0000
  N   N4        1.0  0.43648  0.58543  0.07686  1.0000
  N   N5        1.0  0.81421  0.39445  0.14135  1.0000
  N   N6        1.0  0.58149  0.44774  0.05875  1.0000
  N   N7        1.0  0.93274  0.53028  0.15672  1.0000
  N   N8        1.0  0.95046  0.58159  0.14255  1.0000
  N   N9        1.0  0.39933  0.59778  0.07680  1.0000
  N   N10       1.0  0.44320  0.87077  0.07942  1.0000
  N   N11       1.0  0.61930  0.43730  0.05373  1.0000
  N   N12       1.0  0.58352  0.15809  0.08094  1.0000
  N   N13       1.0  0.47984  0.40056  0.11877  1.0000
  N   N14       1.0  0.43301  0.37241  0.09907  1.0000
  N   N15       1.0  0.42953  0.82187  0.07557  1.0000
  N   N16       1.0  0.15215  0.58441  0.09582  1.0000
  N   N17       1.0  0.59384  0.20832  0.07548  1.0000
  N   N18       1.0  0.86322  0.42957  0.15470  1.0000
  N   N19       1.0  0.61411  0.08065  0.60720  1.0000
  N   N20       1.0  0.64588  0.06092  0.62861  1.0000
  N   N21       1.0  0.19735  0.61096  0.62106  1.0000
  N   N22       1.0  0.42815  0.57356  0.59190  1.0000
  N   N23       1.0  0.80928  0.38856  0.64367  1.0000
  N   N24       1.0  0.57483  0.43805  0.56910  1.0000
  N   N25       1.0  0.92693  0.52604  0.65578  1.0000
  N   N26       1.0  0.94385  0.57645  0.64497  1.0000
  N   N27       1.0  0.39110  0.58655  0.58945  1.0000
  N   N28       1.0  0.43991  0.86635  0.57317  1.0000
  N   N29       1.0  0.61299  0.42826  0.56276  1.0000
  N   N30       1.0  0.57957  0.15266  0.57848  1.0000
  N   N31       1.0  0.47304  0.39224  0.62093  1.0000
  N   N32       1.0  0.42640  0.36430  0.59957  1.0000
  N   N33       1.0  0.42601  0.81723  0.56989  1.0000
  N   N34       1.0  0.14660  0.57916  0.60705  1.0000
  N   N35       1.0  0.58961  0.20238  0.57498  1.0000
  N   N36       1.0  0.85775  0.42264  0.66319  1.0000
  O   O1        1.0  0.37812  0.49160  0.10931  1.0000
  O   O2        1.0  0.63783  0.54422  0.01782  1.0000
  O   O3        1.0  0.52485  0.88113  0.15799  1.0000
  O   O4        1.0  0.50086  0.14200  0.00323  1.0000
  O   O5        1.0  0.12422  0.59646  0.26825  1.0000
  O   O6        1.0  0.89190  0.36336  0.20171  1.0000
  O   O7        1.0  0.37035  0.47998  0.62247  1.0000
  O   O8        1.0  0.63072  0.53559  0.52369  1.0000
  O   O9        1.0  0.52193  0.87770  0.64609  1.0000
  O   O10       1.0  0.49602  0.13370  0.51039  1.0000
  O   O11       1.0  0.11789  0.59178  0.77637  1.0000
  O   O12       1.0  0.88945  0.36589  0.67386  1.0000
  C  Sn1       1.0  0.74911  0.09288  0.11871  1.0000
  C   C85       1.0  0.70925  0.10050  0.13341  1.0000
  C  Sn2       1.0  0.72020  0.16173  0.08006  1.0000
  C  Sn3       1.0  0.77208  0.21651  0.01043  1.0000
  C   C86       1.0  0.77539  0.97041  0.99572  1.0000
  C  Sn4       1.0  0.80098  0.14766  0.04908  1.0000
  O  Te1       1.0  0.73726  0.03122  0.17285  1.0000
  O  Te2       1.0  0.67970  0.16812  0.09610  1.0000
  O  Te3       1.0  0.74738  0.03973  0.95628  1.0000
  O  Te4       1.0  0.84145  0.14126  0.03302  1.0000
  Mg  Mg1       1.0  0.71540  0.26219  0.00425  1.0000
  Mg  Mg2       1.0  0.80579  0.04725  0.12472  1.0000
  C  Sn5       1.0  0.91309  0.69389  0.01943  1.0000
  C   C87       1.0  0.85899  0.66142  0.04633  1.0000
  C  Sn6       1.0  0.83027  0.59057  0.14112  1.0000
  C  Sn7       1.0  0.85617  0.55133  0.21061  1.0000
  C   C88       1.0  0.91024  0.58380  0.18374  1.0000
  C  Sn8       1.0  0.93899  0.65466  0.08892  1.0000
  O  Te5       1.0  0.90450  0.52631  0.92428  1.0000
  O  Te6       1.0  0.77622  0.55926  0.16623  1.0000
  O  Te7       1.0  0.82820  0.48039  0.30582  1.0000
  O  Te8       1.0  0.99301  0.68595  0.06384  1.0000
  Mg  Mg3       1.0  0.75525  0.46126  0.30503  1.0000
  Mg  Mg4       1.0  0.97750  0.54546  0.92517  1.0000
  C  Sn9       1.0  0.35664  0.26775  0.12013  1.0000
  C   C89       1.0  0.40211  0.29573  0.17720  1.0000
  C  Sn10      1.0  0.44177  0.27838  0.22100  1.0000
  C  Sn11      1.0  0.43589  0.23214  0.20735  1.0000
  C   C90       1.0  0.39045  0.20420  0.15028  1.0000
  C  Sn12      1.0  0.35075  0.22152  0.10648  1.0000
  O  Te9       1.0  0.31749  0.28582  0.07703  1.0000
  O  Te10      1.0  0.48687  0.30698  0.27781  1.0000
  O  Te11      1.0  0.47509  0.21408  0.25052  1.0000
  O  Te12      1.0  0.30569  0.19295  0.04967  1.0000
  Mg  Mg5       1.0  0.52925  0.26658  0.32131  1.0000
  Mg  Mg6       1.0  0.26330  0.23334  0.00603  1.0000
  C  Sn13      1.0  0.75911  0.19889  0.56323  1.0000
  C   C91       1.0  0.79829  0.18307  0.58926  1.0000
  C  Sn14      1.0  0.78743  0.12806  0.61002  1.0000
  C  Sn15      1.0  0.73634  0.08806  0.60452  1.0000
  C   C92       1.0  0.69719  0.10389  0.57846  1.0000
  C  Sn16      1.0  0.70801  0.15888  0.55772  1.0000
  O  Te13      1.0  0.77085  0.25411  0.54277  1.0000
  O  Te14      1.0  0.82724  0.11323  0.63596  1.0000
  O  Te15      1.0  0.72462  0.03280  0.62501  1.0000
  O  Te16      1.0  0.66824  0.17373  0.53176  1.0000
  Mg  Mg7       1.0  0.79200  0.03289  0.65697  1.0000
  Mg  Mg8       1.0  0.70344  0.25408  0.51063  1.0000
  C  Sn17      1.0  0.91854  0.63961  0.69230  1.0000
  C   C93       1.0  0.90671  0.58867  0.69273  1.0000
  C  Sn18      1.0  0.85995  0.56335  0.63486  1.0000
  C  Sn19      1.0  0.82428  0.58952  0.57518  1.0000
  C   C94       1.0  0.83612  0.64043  0.57473  1.0000
  C  Sn20      1.0  0.88287  0.66578  0.63262  1.0000
  O  Te17      1.0  0.96551  0.66417  0.75072  1.0000
  O  Te18      1.0  0.84898  0.51240  0.63658  1.0000
  O  Te19      1.0  0.77728  0.56491  0.51674  1.0000
  O  Te20      1.0  0.89385  0.71670  0.63088  1.0000
  Mg  Mg9       1.0  0.77993  0.49543  0.54407  1.0000
  Mg  Mg10      1.0  0.96290  0.73374  0.72325  1.0000
  C  Sn21      1.0  0.35067  0.26090  0.61497  1.0000
  C   C95       1.0  0.39585  0.28839  0.67416  1.0000
  C  Sn22      1.0  0.43535  0.27048  0.72064  1.0000
  C  Sn23      1.0  0.42959  0.22415  0.70758  1.0000
  C   C96       1.0  0.38444  0.19670  0.64839  1.0000
  C  Sn24      1.0  0.34492  0.21458  0.60191  1.0000
  O  Te21      1.0  0.31169  0.27954  0.56920  1.0000
  O  Te22      1.0  0.48015  0.29861  0.77952  1.0000
  O  Te23      1.0  0.46863  0.20553  0.75342  1.0000
  O  Te24      1.0  0.30014  0.18648  0.54302  1.0000
  Mg  Mg11      1.0  0.52239  0.25752  0.82633  1.0000
  Mg  Mg12      1.0  0.25789  0.22756  0.49608  1.0000
