data_image0
_chemical_formula_structural       H104C224S16N48SnCSn2CSnTe4Mg2SnCSn2CSnTe4Mg2SnCSn2CSnTe4Mg2SnCSn2CSnTe4Mg2SnCSn2CSnTe4Mg2SnCSn2CSnTe4Mg2SnCSn2CSnTe4Mg2SnCSn2CSnTe4Mg2SnCSn2CSnTe4Mg2SnCSn2CSnTe4Mg2SnCSn2CSnTe4Mg2SnCSn2CSnTe4Mg2SnCSn2CSnTe4Mg2SnCSn2CSnTe4Mg2SnCSn2CSnTe4Mg2SnCSn2CSnTe4Mg2
_chemical_formula_sum              "H104 C256 S16 N48 Sn64 Te64 Mg32"
_cell_length_a       41.4087
_cell_length_b       50.7503
_cell_length_c       8.39205
_cell_angle_alpha    95.8963
_cell_angle_beta     122.104
_cell_angle_gamma    89.8641

_symmetry_space_group_name_H-M    'P1'
_space_group_IT_number       1

loop_
  _space_group_symop_operation_xyz
  'x, y, z'

loop_
  _atom_site_type_symbol
  _atom_site_label
  _atom_site_symmetry_multiplicity
  _atom_site_fract_x
  _atom_site_fract_y
  _atom_site_fract_z
  _atom_site_occupancy
  H   H1        1.0  0.64189  0.35946  0.46773  1.0000
  H   H2        1.0  0.70236  0.43711  0.55988  1.0000
  H   H3        1.0  0.59875  0.38799  0.31675  1.0000
  H   H4        1.0  0.66629  0.47702  0.52970  1.0000
  H   H5        1.0  0.56255  0.42753  0.27221  1.0000
  H   H6        1.0  0.55812  0.44731  0.48338  1.0000
  H   H7        1.0  0.22165  0.86971  0.30414  1.0000
  H   H8        1.0  0.25933  0.83216  0.30714  1.0000
  H   H9        1.0  0.16940  0.77794  0.21335  1.0000
  H   H10       1.0  0.13258  0.81559  0.21486  1.0000
  H   H11       1.0  0.12366  0.86264  0.23319  1.0000
  H   H12       1.0  0.16558  0.93711  0.15523  1.0000
  H   H13       1.0  0.11636  0.89578  0.40385  1.0000
  H   H14       1.0  0.12786  0.97570  0.14095  1.0000
  H   H15       1.0  0.08232  0.93484  0.41127  1.0000
  H   H16       1.0  0.03133  0.93857  0.16835  1.0000
  H   H17       1.0  0.38435  0.64799  0.08748  1.0000
  H   H18       1.0  0.46611  0.56130  0.02182  1.0000
  H   H19       1.0  0.80383  0.13979  0.26852  1.0000
  H   H20       1.0  0.76808  0.17788  0.28590  1.0000
  H   H21       1.0  0.83843  0.22945  0.19735  1.0000
  H   H22       1.0  0.87320  0.19132  0.17650  1.0000
  H   H23       1.0  0.88532  0.14434  0.19041  1.0000
  H   H24       1.0  0.83012  0.06823  0.13435  1.0000
  H   H25       1.0  0.93325  0.11858  0.41208  1.0000
  H   H26       1.0  0.86675  0.02939  0.13954  1.0000
  H   H27       1.0  0.97028  0.07951  0.43425  1.0000
  H   H28       1.0  0.96865  0.06873  0.17670  1.0000
  H   H29       1.0  0.29230  0.35467  0.00563  1.0000
  H   H30       1.0  0.25726  0.31613  0.01273  1.0000
  H   H31       1.0  0.36149  0.29318  0.48972  1.0000
  H   H32       1.0  0.39656  0.33105  0.47554  1.0000
  H   H33       1.0  0.39957  0.36892  0.33877  1.0000
  H   H34       1.0  0.49424  0.44778  0.42658  1.0000
  H   H35       1.0  0.89065  0.85598  0.14128  1.0000
  H   H36       1.0  0.97152  0.93743  0.15566  1.0000
  H   H37       1.0  0.72162  0.63590  0.22742  1.0000
  H   H38       1.0  0.75916  0.67410  0.22976  1.0000
  H   H39       1.0  0.68941  0.72780  0.32989  1.0000
  H   H40       1.0  0.65232  0.68974  0.32820  1.0000
  H   H41       1.0  0.63479  0.64338  0.26392  1.0000
  H   H42       1.0  0.52954  0.56009  0.06835  1.0000
  H   H43       1.0  0.21434  0.14410  0.25662  1.0000
  H   H44       1.0  0.25225  0.18204  0.25855  1.0000
  H   H45       1.0  0.18293  0.23622  0.35795  1.0000
  H   H46       1.0  0.14598  0.19843  0.36081  1.0000
  H   H47       1.0  0.12971  0.15205  0.31159  1.0000
  H   H48       1.0  0.16412  0.07425  0.16694  1.0000
  H   H49       1.0  0.11474  0.12183  0.42716  1.0000
  H   H50       1.0  0.12506  0.03498  0.13483  1.0000
  H   H51       1.0  0.07892  0.08257  0.41287  1.0000
  H   H52       1.0  0.02744  0.07026  0.17763  1.0000
  H   H53       1.0  0.63100  0.50103  0.32931  1.0000
  H   H54       1.0  0.12522  0.00819  0.31031  1.0000
  H   H55       1.0  0.39183  0.50475  0.14856  1.0000
  H   H56       1.0  0.90727  0.00369  0.32944  1.0000
  H   H57       1.0  0.62298  0.35860  0.89987  1.0000
  H   H58       1.0  0.65592  0.43354  0.76961  1.0000
  H   H59       1.0  0.60996  0.39111  0.03012  1.0000
  H   H60       1.0  0.61575  0.46985  0.74491  1.0000
  H   H61       1.0  0.57239  0.42733  0.01896  1.0000
  H   H62       1.0  0.52909  0.43642  0.92959  1.0000
  H   H63       1.0  0.11650  0.85688  0.80379  1.0000
  H   H64       1.0  0.02710  0.93166  0.81685  1.0000
  H   H65       1.0  0.27200  0.62886  0.65606  1.0000
  H   H66       1.0  0.24442  0.66840  0.71923  1.0000
  H   H67       1.0  0.32059  0.71807  0.65847  1.0000
  H   H68       1.0  0.34888  0.67864  0.60362  1.0000
  H   H69       1.0  0.35418  0.63091  0.58059  1.0000
  H   H70       1.0  0.43962  0.55676  0.56717  1.0000
  H   H71       1.0  0.86780  0.13865  0.70810  1.0000
  H   H72       1.0  0.96541  0.06257  0.82033  1.0000
  H   H73       1.0  0.27139  0.34293  0.50250  1.0000
  H   H74       1.0  0.23522  0.30507  0.51167  1.0000
  H   H75       1.0  0.33969  0.27890  0.96829  1.0000
  H   H76       1.0  0.37560  0.31636  0.95559  1.0000
  H   H77       1.0  0.37814  0.35606  0.82311  1.0000
  H   H78       1.0  0.46657  0.43566  0.87961  1.0000
  H   H79       1.0  0.78513  0.85667  0.74760  1.0000
  H   H80       1.0  0.74843  0.81881  0.75551  1.0000
  H   H81       1.0  0.81867  0.76453  0.66325  1.0000
  H   H82       1.0  0.85420  0.80226  0.64961  1.0000
  H   H83       1.0  0.86849  0.84911  0.68290  1.0000
  H   H84       1.0  0.83402  0.92609  0.83552  1.0000
  H   H85       1.0  0.88144  0.87978  0.55973  1.0000
  H   H86       1.0  0.87245  0.96586  0.86656  1.0000
  H   H87       1.0  0.91641  0.91950  0.57292  1.0000
  H   H88       1.0  0.96825  0.93076  0.81561  1.0000
  H   H89       1.0  0.68711  0.63190  0.71382  1.0000
  H   H90       1.0  0.72410  0.66940  0.70335  1.0000
  H   H91       1.0  0.65993  0.72472  0.83518  1.0000
  H   H92       1.0  0.62419  0.68732  0.84974  1.0000
  H   H93       1.0  0.60806  0.64141  0.81006  1.0000
  H   H94       1.0  0.64347  0.56231  0.67494  1.0000
  H   H95       1.0  0.58520  0.61232  0.87539  1.0000
  H   H96       1.0  0.60517  0.52300  0.65316  1.0000
  H   H97       1.0  0.55016  0.57351  0.87171  1.0000
  H   H98       1.0  0.50173  0.55728  0.60903  1.0000
  H   H99       1.0  0.10917  0.14316  0.84972  1.0000
  H   H100      1.0  0.02556  0.06312  0.83670  1.0000
  H   H101      1.0  0.60586  0.50090  0.85971  1.0000
  H   H102      1.0  0.08904  0.99620  0.66292  1.0000
  H   H103      1.0  0.35901  0.48859  0.57704  1.0000
  H   H104      1.0  0.87156  0.99337  0.68763  1.0000
  C   C1        1.0  0.74138  0.27524  0.34044  1.0000
  C   C2        1.0  0.77969  0.27741  0.38552  1.0000
  C   C3        1.0  0.72346  0.24937  0.25938  1.0000
  C   C4        1.0  0.66485  0.36408  0.44386  1.0000
  C   C5        1.0  0.65353  0.40950  0.44189  1.0000
  C   C6        1.0  0.67175  0.43517  0.50021  1.0000
  C   C7        1.0  0.61396  0.40742  0.36795  1.0000
  C   C8        1.0  0.65117  0.45756  0.48066  1.0000
  C   C9        1.0  0.59342  0.42991  0.34319  1.0000
  C   C10       1.0  0.61115  0.45572  0.39539  1.0000
  C   C11       1.0  0.58889  0.47958  0.34811  1.0000
  C   C12       1.0  0.55302  0.48101  0.33362  1.0000
  C   C13       1.0  0.53916  0.46187  0.39965  1.0000
  C   C14       1.0  0.21048  0.84948  0.28451  1.0000
  C   C15       1.0  0.23160  0.82823  0.28609  1.0000
  C   C16       1.0  0.21757  0.80150  0.25656  1.0000
  C   C17       1.0  0.18127  0.79783  0.23296  1.0000
  C   C18       1.0  0.16035  0.81924  0.23352  1.0000
  C   C19       1.0  0.17407  0.84552  0.25592  1.0000
  C   C20       1.0  0.23903  0.77899  0.24541  1.0000
  C   C21       1.0  0.27209  0.78158  0.23358  1.0000
  C   C22       1.0  0.22887  0.75186  0.23993  1.0000
  C   C23       1.0  0.15133  0.86766  0.25095  1.0000
  C   C24       1.0  0.14174  0.91307  0.26798  1.0000
  C   C25       1.0  0.14632  0.93668  0.20561  1.0000
  C   C26       1.0  0.11781  0.91292  0.33980  1.0000
  C   C27       1.0  0.12557  0.95840  0.20146  1.0000
  C   C28       1.0  0.09850  0.93518  0.34373  1.0000
  C   C29       1.0  0.10083  0.95835  0.26922  1.0000
  C   C30       1.0  0.07979  0.98213  0.26440  1.0000
  C   C31       1.0  0.04328  0.98105  0.24310  1.0000
  C   C32       1.0  0.02175  0.95682  0.20416  1.0000
  C   C33       1.0  0.28247  0.73173  0.20708  1.0000
  C   C34       1.0  0.24944  0.72916  0.21956  1.0000
  C   C35       1.0  0.29318  0.75894  0.21779  1.0000
  C   C36       1.0  0.36226  0.64331  0.11719  1.0000
  C   C37       1.0  0.43534  0.52749  0.14892  1.0000
  C   C38       1.0  0.47082  0.52629  0.15918  1.0000
  C   C39       1.0  0.48479  0.54598  0.09709  1.0000
  C   C40       1.0  0.81084  0.15953  0.25156  1.0000
  C   C41       1.0  0.79088  0.18091  0.26095  1.0000
  C   C42       1.0  0.80056  0.20684  0.24430  1.0000
  C   C43       1.0  0.83078  0.21002  0.21457  1.0000
  C   C44       1.0  0.85056  0.18845  0.20362  1.0000
  C   C45       1.0  0.84127  0.16291  0.22441  1.0000
  C   C46       1.0  0.78073  0.22945  0.26692  1.0000
  C   C47       1.0  0.74239  0.22731  0.22130  1.0000
  C   C48       1.0  0.79869  0.25532  0.34828  1.0000
  C   C49       1.0  0.86300  0.14056  0.22028  1.0000
  C   C50       1.0  0.87853  0.09636  0.25939  1.0000
  C   C51       1.0  0.86071  0.07059  0.19442  1.0000
  C   C52       1.0  0.91850  0.09913  0.34665  1.0000
  C   C53       1.0  0.88153  0.04889  0.20039  1.0000
  C   C54       1.0  0.93933  0.07706  0.35819  1.0000
  C   C55       1.0  0.92129  0.05148  0.27894  1.0000
  C   C56       1.0  0.94165  0.02782  0.27536  1.0000
  C   C57       1.0  0.97281  0.02844  0.24806  1.0000
  C   C58       1.0  0.98585  0.05158  0.21037  1.0000
  C   C59       1.0  0.30719  0.34119  0.11187  1.0000
  C   C60       1.0  0.28757  0.31953  0.11720  1.0000
  C   C61       1.0  0.30631  0.30165  0.25425  1.0000
  C   C62       1.0  0.34620  0.30639  0.38275  1.0000
  C   C63       1.0  0.36589  0.32778  0.37433  1.0000
  C   C64       1.0  0.34677  0.34583  0.24124  1.0000
  C   C65       1.0  0.28532  0.27936  0.26548  1.0000
  C   C66       1.0  0.24610  0.27971  0.20625  1.0000
  C   C67       1.0  0.30230  0.25587  0.34635  1.0000
  C   C68       1.0  0.36824  0.36900  0.24711  1.0000
  C   C69       1.0  0.43916  0.48104  0.21817  1.0000
  C   C70       1.0  0.47787  0.48174  0.26792  1.0000
  C   C71       1.0  0.50319  0.46215  0.36803  1.0000
  C   C72       1.0  0.79009  0.77168  0.22960  1.0000
  C   C73       1.0  0.75132  0.77199  0.17676  1.0000
  C   C74       1.0  0.80763  0.74825  0.30796  1.0000
  C   C75       1.0  0.86870  0.86027  0.17479  1.0000
  C   C76       1.0  0.94259  0.97909  0.26978  1.0000
  C   C77       1.0  0.97389  0.97946  0.24258  1.0000
  C   C78       1.0  0.98835  0.95607  0.20019  1.0000
  C   C79       1.0  0.71530  0.65615  0.25283  1.0000
  C   C80       1.0  0.73625  0.67757  0.25459  1.0000
  C   C81       1.0  0.72741  0.70403  0.28160  1.0000
  C   C82       1.0  0.69669  0.70780  0.30809  1.0000
  C   C83       1.0  0.67559  0.68631  0.30525  1.0000
  C   C84       1.0  0.68443  0.66008  0.27734  1.0000
  C   C85       1.0  0.74836  0.72654  0.27311  1.0000
  C   C86       1.0  0.78743  0.72643  0.32967  1.0000
  C   C87       1.0  0.73131  0.75041  0.20130  1.0000
  C   C88       1.0  0.66144  0.63803  0.27288  1.0000
  C   C89       1.0  0.58361  0.52493  0.25565  1.0000
  C   C90       1.0  0.54541  0.52500  0.21486  1.0000
  C   C91       1.0  0.52037  0.54528  0.12308  1.0000
  C   C92       1.0  0.20843  0.16441  0.28340  1.0000
  C   C93       1.0  0.22955  0.18566  0.28476  1.0000
  C   C94       1.0  0.22090  0.21217  0.31175  1.0000
  C   C95       1.0  0.19023  0.21616  0.33804  1.0000
  C   C96       1.0  0.16917  0.19482  0.33742  1.0000
  C   C97       1.0  0.17786  0.16855  0.31000  1.0000
  C   C98       1.0  0.24207  0.23452  0.30328  1.0000
  C   C99       1.0  0.28133  0.23429  0.36519  1.0000
  C   C100      1.0  0.22537  0.25823  0.22773  1.0000
  C   C101      1.0  0.15490  0.14656  0.30655  1.0000
  C   C102      1.0  0.14106  0.10116  0.29004  1.0000
  C   C103      1.0  0.14464  0.07590  0.21638  1.0000
  C   C104      1.0  0.11641  0.10302  0.35807  1.0000
  C   C105      1.0  0.12308  0.05385  0.20204  1.0000
  C   C106      1.0  0.09587  0.08067  0.34919  1.0000
  C   C107      1.0  0.09818  0.05541  0.26910  1.0000
  C   C108      1.0  0.07803  0.03094  0.26316  1.0000
  C   C109      1.0  0.04162  0.03003  0.24366  1.0000
  C   C110      1.0  0.01879  0.05238  0.20947  1.0000
  C   C111      1.0  0.60307  0.50173  0.31174  1.0000
  C   C112      1.0  0.53050  0.50325  0.25826  1.0000
  C   C113      1.0  0.09625  0.00712  0.27986  1.0000
  C   C114      1.0  0.02540  0.00520  0.24563  1.0000
  C   C115      1.0  0.41997  0.50439  0.16863  1.0000
  C   C116      1.0  0.49301  0.50373  0.22794  1.0000
  C   C117      1.0  0.92875  0.00347  0.29250  1.0000
  C   C118      1.0  0.99087  0.00435  0.24705  1.0000
  C   C119      1.0  0.72932  0.27429  0.84585  1.0000
  C   C120      1.0  0.76777  0.27502  0.89226  1.0000
  C   C121      1.0  0.70962  0.24899  0.75653  1.0000
  C   C122      1.0  0.64832  0.36393  0.89622  1.0000
  C   C123      1.0  0.63467  0.40863  0.89079  1.0000
  C   C124      1.0  0.63693  0.43220  0.82133  1.0000
  C   C125      1.0  0.61059  0.40795  0.96140  1.0000
  C   C126      1.0  0.61430  0.45299  0.81119  1.0000
  C   C127      1.0  0.58850  0.42901  0.95300  1.0000
  C   C128      1.0  0.58846  0.45223  0.87320  1.0000
  C   C129      1.0  0.56352  0.47477  0.84386  1.0000
  C   C130      1.0  0.52660  0.47402  0.82146  1.0000
  C   C131      1.0  0.51166  0.45264  0.86594  1.0000
  C   C132      1.0  0.21867  0.76956  0.73410  1.0000
  C   C133      1.0  0.25298  0.77074  0.73261  1.0000
  C   C134      1.0  0.20655  0.74299  0.72818  1.0000
  C   C135      1.0  0.13705  0.86070  0.76231  1.0000
  C   C136      1.0  0.05494  0.97215  0.71937  1.0000
  C   C137      1.0  0.02366  0.97192  0.74648  1.0000
  C   C138      1.0  0.01017  0.94896  0.78339  1.0000
  C   C139      1.0  0.28220  0.64855  0.65520  1.0000
  C   C140      1.0  0.26668  0.67089  0.69038  1.0000
  C   C141      1.0  0.27911  0.69691  0.68883  1.0000
  C   C142      1.0  0.30968  0.69877  0.65912  1.0000
  C   C143      1.0  0.32575  0.67632  0.62788  1.0000
  C   C144      1.0  0.31182  0.65067  0.62089  1.0000
  C   C145      1.0  0.26056  0.72049  0.71148  1.0000
  C   C146      1.0  0.22672  0.71944  0.71831  1.0000
  C   C147      1.0  0.27321  0.74721  0.72260  1.0000
  C   C148      1.0  0.32824  0.62736  0.58294  1.0000
  C   C149      1.0  0.40242  0.51536  0.60706  1.0000
  C   C150      1.0  0.44048  0.51705  0.64483  1.0000
  C   C151      1.0  0.45622  0.53960  0.61544  1.0000
  C   C152      1.0  0.76606  0.22656  0.76957  1.0000
  C   C153      1.0  0.72727  0.22608  0.71743  1.0000
  C   C154      1.0  0.78543  0.25201  0.85379  1.0000
  C   C155      1.0  0.84274  0.13411  0.71595  1.0000
  C   C156      1.0  0.91663  0.01929  0.72762  1.0000
  C   C157      1.0  0.95322  0.02007  0.74868  1.0000
  C   C158      1.0  0.97500  0.04415  0.78683  1.0000
  C   C159      1.0  0.28598  0.32886  0.60462  1.0000
  C   C160      1.0  0.26589  0.30752  0.60952  1.0000
  C   C161      1.0  0.28443  0.28915  0.74257  1.0000
  C   C162      1.0  0.32464  0.29253  0.86409  1.0000
  C   C163      1.0  0.34478  0.31376  0.85716  1.0000
  C   C164      1.0  0.32573  0.33273  0.73201  1.0000
  C   C165      1.0  0.26259  0.26818  0.75968  1.0000
  C   C166      1.0  0.22418  0.27043  0.71130  1.0000
  C   C167      1.0  0.27796  0.24406  0.83364  1.0000
  C   C168      1.0  0.34680  0.35645  0.74311  1.0000
  C   C169      1.0  0.41122  0.46956  0.69373  1.0000
  C   C170      1.0  0.45006  0.47185  0.74712  1.0000
  C   C171      1.0  0.47575  0.45189  0.83512  1.0000
  C   C172      1.0  0.79146  0.83633  0.72448  1.0000
  C   C173      1.0  0.77108  0.81513  0.72891  1.0000
  C   C174      1.0  0.78014  0.78862  0.70551  1.0000
  C   C175      1.0  0.81083  0.78457  0.67915  1.0000
  C   C176      1.0  0.83110  0.80590  0.67366  1.0000
  C   C177      1.0  0.82176  0.83216  0.69574  1.0000
  C   C178      1.0  0.75903  0.76640  0.71563  1.0000
  C   C179      1.0  0.71991  0.76702  0.65766  1.0000
  C   C180      1.0  0.77555  0.74247  0.78831  1.0000
  C   C181      1.0  0.84373  0.85427  0.69267  1.0000
  C   C182      1.0  0.85629  0.89981  0.70519  1.0000
  C   C183      1.0  0.85281  0.92488  0.78191  1.0000
  C   C184      1.0  0.88007  0.89839  0.63198  1.0000
  C   C185      1.0  0.87395  0.94716  0.79569  1.0000
  C   C186      1.0  0.90006  0.92098  0.63988  1.0000
  C   C187      1.0  0.89812  0.94598  0.72447  1.0000
  C   C188      1.0  0.91831  0.97046  0.73128  1.0000
  C   C189      1.0  0.95465  0.97107  0.74996  1.0000
  C   C190      1.0  0.97716  0.94853  0.78383  1.0000
  C   C191      1.0  0.68174  0.65236  0.74109  1.0000
  C   C192      1.0  0.70235  0.67335  0.73599  1.0000
  C   C193      1.0  0.69486  0.70001  0.76823  1.0000
  C   C194      1.0  0.66589  0.70457  0.80661  1.0000
  C   C195      1.0  0.64565  0.68347  0.81430  1.0000
  C   C196      1.0  0.65305  0.65707  0.78100  1.0000
  C   C197      1.0  0.71603  0.72199  0.75642  1.0000
  C   C198      1.0  0.75480  0.72113  0.81039  1.0000
  C   C199      1.0  0.69915  0.74560  0.67896  1.0000
  C   C200      1.0  0.63110  0.63545  0.78807  1.0000
  C   C201      1.0  0.61629  0.59020  0.76940  1.0000
  C   C202      1.0  0.62229  0.56445  0.71373  1.0000
  C   C203      1.0  0.58925  0.59292  0.82263  1.0000
  C   C204      1.0  0.60105  0.54251  0.70416  1.0000
  C   C205      1.0  0.56893  0.57089  0.81828  1.0000
  C   C206      1.0  0.57402  0.54509  0.75732  1.0000
  C   C207      1.0  0.55513  0.52111  0.76515  1.0000
  C   C208      1.0  0.51679  0.51941  0.71968  1.0000
  C   C209      1.0  0.49195  0.54027  0.64420  1.0000
  C   C210      1.0  0.21764  0.22546  0.80321  1.0000
  C   C211      1.0  0.25633  0.22360  0.85733  1.0000
  C   C212      1.0  0.20236  0.24972  0.73241  1.0000
  C   C213      1.0  0.13159  0.13841  0.82039  1.0000
  C   C214      1.0  0.05445  0.02099  0.72571  1.0000
  C   C215      1.0  0.02305  0.02097  0.75199  1.0000
  C   C216      1.0  0.00863  0.04453  0.79270  1.0000
  C   C217      1.0  0.57656  0.49892  0.82342  1.0000
  C   C218      1.0  0.50272  0.49615  0.75295  1.0000
  C   C219      1.0  0.06782  0.99647  0.70151  1.0000
  C   C220      1.0  0.00574  0.99621  0.74696  1.0000
  C   C221      1.0  0.38900  0.49117  0.62520  1.0000
  C   C222      1.0  0.46434  0.49498  0.71379  1.0000
  C   C223      1.0  0.90034  0.99438  0.71539  1.0000
  C   C224      1.0  0.97108  0.99577  0.74773  1.0000
  S   S1        1.0  0.67837  0.21169  0.10994  1.0000
  S   S2        1.0  0.19755  0.71178  0.23764  1.0000
  S   S3        1.0  0.32482  0.79912  0.22339  1.0000
  S   S4        1.0  0.84395  0.29289  0.50137  1.0000
  S   S5        1.0  0.34583  0.22222  0.49647  1.0000
  S   S6        1.0  0.85277  0.71582  0.46541  1.0000
  S   S7        1.0  0.68716  0.78404  0.06085  1.0000
  S   S8        1.0  0.18225  0.29253  0.09227  1.0000
  S   S9        1.0  0.66149  0.21317  0.58809  1.0000
  S   S10       1.0  0.17160  0.70441  0.71826  1.0000
  S   S11       1.0  0.30849  0.78606  0.73803  1.0000
  S   S12       1.0  0.83287  0.28837  0.00789  1.0000
  S   S13       1.0  0.31896  0.20868  0.96809  1.0000
  S   S14       1.0  0.81859  0.70821  0.92749  1.0000
  S   S15       1.0  0.65480  0.77831  0.51948  1.0000
  S   S16       1.0  0.16129  0.28519  0.60083  1.0000
  N   N1        1.0  0.68661  0.24242  0.20098  1.0000
  N   N2        1.0  0.71870  0.20490  0.13340  1.0000
  N   N3        1.0  0.67470  0.38819  0.44106  1.0000
  N   N4        1.0  0.19898  0.74376  0.25223  1.0000
  N   N5        1.0  0.23310  0.70555  0.21419  1.0000
  N   N6        1.0  0.16299  0.89190  0.26368  1.0000
  N   N7        1.0  0.32405  0.76722  0.21382  1.0000
  N   N8        1.0  0.28799  0.80521  0.23578  1.0000
  N   N9        1.0  0.35418  0.61929  0.12989  1.0000
  N   N10       1.0  0.83568  0.26218  0.40904  1.0000
  N   N11       1.0  0.80338  0.29977  0.47463  1.0000
  N   N12       1.0  0.85595  0.11729  0.24914  1.0000
  N   N13       1.0  0.33948  0.25055  0.41440  1.0000
  N   N14       1.0  0.30385  0.21427  0.45175  1.0000
  N   N15       1.0  0.35211  0.38932  0.16095  1.0000
  N   N16       1.0  0.84530  0.74410  0.38138  1.0000
  N   N17       1.0  0.81086  0.70691  0.41887  1.0000
  N   N18       1.0  0.86053  0.88420  0.20448  1.0000
  N   N19       1.0  0.69433  0.75551  0.13987  1.0000
  N   N20       1.0  0.72822  0.79201  0.09416  1.0000
  N   N21       1.0  0.67145  0.61377  0.27649  1.0000
  N   N22       1.0  0.18843  0.26359  0.16505  1.0000
  N   N23       1.0  0.22371  0.30026  0.12950  1.0000
  N   N24       1.0  0.16340  0.12217  0.29381  1.0000
  N   N25       1.0  0.67194  0.24352  0.68850  1.0000
  N   N26       1.0  0.70195  0.20469  0.61992  1.0000
  N   N27       1.0  0.65695  0.38807  0.88755  1.0000
  N   N28       1.0  0.17459  0.73628  0.72749  1.0000
  N   N29       1.0  0.20873  0.69659  0.71245  1.0000
  N   N30       1.0  0.14233  0.88402  0.72735  1.0000
  N   N31       1.0  0.30537  0.75413  0.72607  1.0000
  N   N32       1.0  0.27121  0.79378  0.74355  1.0000
  N   N33       1.0  0.31370  0.60362  0.55983  1.0000
  N   N34       1.0  0.82276  0.25768  0.91535  1.0000
  N   N35       1.0  0.79284  0.29671  0.98221  1.0000
  N   N36       1.0  0.83295  0.11015  0.72220  1.0000
  N   N37       1.0  0.31403  0.23710  0.88953  1.0000
  N   N38       1.0  0.27760  0.20274  0.93773  1.0000
  N   N39       1.0  0.32977  0.37747  0.67225  1.0000
  N   N40       1.0  0.81244  0.73689  0.85089  1.0000
  N   N41       1.0  0.77717  0.70075  0.89179  1.0000
  N   N42       1.0  0.83485  0.87856  0.70548  1.0000
  N   N43       1.0  0.66156  0.75018  0.60475  1.0000
  N   N44       1.0  0.69695  0.78668  0.56699  1.0000
  N   N45       1.0  0.63813  0.61091  0.76655  1.0000
  N   N46       1.0  0.16583  0.25606  0.67063  1.0000
  N   N47       1.0  0.20325  0.29177  0.63985  1.0000
  N   N48       1.0  0.13942  0.11430  0.79242  1.0000
  C  Sn1       1.0  0.05657  0.07427  0.62830  1.0000
  C   C225      1.0  0.06932  0.04870  0.66056  1.0000
  C  Sn2       1.0  0.10834  0.04487  0.77046  1.0000
  C  Sn3       1.0  0.13519  0.06705  0.84989  1.0000
  C   C226      1.0  0.12244  0.09260  0.81766  1.0000
  C  Sn4       1.0  0.08341  0.09646  0.70773  1.0000
  O  Te1       1.0  0.01742  0.07764  0.51798  1.0000
  O  Te2       1.0  0.12040  0.01911  0.80068  1.0000
  O  Te3       1.0  0.17436  0.06366  0.96027  1.0000
  O  Te4       1.0  0.07135  0.12219  0.67753  1.0000
  Mg  Mg1       1.0  0.17672  0.02471  0.96108  1.0000
  Mg  Mg2       1.0  0.01504  0.11662  0.51725  1.0000
  C  Sn5       1.0  0.18243  0.83410  0.64206  1.0000
  C   C227      1.0  0.15585  0.83630  0.69635  1.0000
  C  Sn6       1.0  0.15202  0.81694  0.79308  1.0000
  C  Sn7       1.0  0.17524  0.79493  0.83658  1.0000
  C   C228      1.0  0.20181  0.79274  0.78234  1.0000
  C  Sn8       1.0  0.20566  0.81209  0.68556  1.0000
  O  Te5       1.0  0.18578  0.85369  0.54547  1.0000
  O  Te6       1.0  0.12524  0.81956  0.84584  1.0000
  O  Te7       1.0  0.17187  0.77533  0.93324  1.0000
  O  Te8       1.0  0.23242  0.80947  0.63285  1.0000
  Mg  Mg3       1.0  0.13132  0.78773  0.97518  1.0000
  Mg  Mg4       1.0  0.22638  0.84130  0.50359  1.0000
  C  Sn9       1.0  0.35018  0.57355  0.39891  1.0000
  C   C229      1.0  0.32749  0.57801  0.47525  1.0000
  C  Sn10      1.0  0.33025  0.56246  0.60953  1.0000
  C  Sn11      1.0  0.35623  0.54204  0.66884  1.0000
  C   C230      1.0  0.37891  0.53759  0.59253  1.0000
  C  Sn12      1.0  0.37617  0.55313  0.45821  1.0000
  O  Te9       1.0  0.34695  0.58934  0.26485  1.0000
  O  Te10      1.0  0.30726  0.56729  0.68378  1.0000
  O  Te11      1.0  0.35945  0.52625  0.80300  1.0000
  O  Te12      1.0  0.39914  0.54831  0.38400  1.0000
  Mg  Mg5       1.0  0.32206  0.54049  0.86280  1.0000
  Mg  Mg6       1.0  0.38438  0.57511  0.20506  1.0000
  C  Sn13      1.0  0.73723  0.33065  0.41556  1.0000
  C   C231      1.0  0.73097  0.30379  0.42090  1.0000
  C  Sn14      1.0  0.69779  0.29476  0.40860  1.0000
  C  Sn15      1.0  0.67028  0.31294  0.39047  1.0000
  C   C232      1.0  0.67654  0.33977  0.38511  1.0000
  C  Sn16      1.0  0.70972  0.34883  0.39743  1.0000
  O  Te13      1.0  0.77060  0.33924  0.42806  1.0000
  O  Te14      1.0  0.69216  0.26782  0.41432  1.0000
  O  Te15      1.0  0.63688  0.30432  0.37797  1.0000
  O  Te16      1.0  0.71534  0.37574  0.39168  1.0000
  Mg  Mg7       1.0  0.64217  0.26572  0.39217  1.0000
  Mg  Mg8       1.0  0.76532  0.37786  0.41372  1.0000
  C  Sn17      1.0  0.93035  0.91235  0.35572  1.0000
  C   C233      1.0  0.89125  0.90800  0.27986  1.0000
  C  Sn18      1.0  0.86593  0.92708  0.18253  1.0000
  C  Sn19      1.0  0.87999  0.95100  0.16047  1.0000
  C   C234      1.0  0.91907  0.95535  0.23627  1.0000
  C  Sn20      1.0  0.94441  0.93628  0.33365  1.0000
  O  Te17      1.0  0.95514  0.89300  0.45247  1.0000
  O  Te18      1.0  0.82696  0.92228  0.10800  1.0000
  O  Te19      1.0  0.85516  0.97036  0.06363  1.0000
  O  Te20      1.0  0.98335  0.94106  0.40813  1.0000
  Mg  Mg9       1.0  0.91220  0.97144  0.98761  1.0000
  Mg  Mg10      1.0  0.00580  0.90869  0.52846  1.0000
  C  Sn21      1.0  0.84832  0.80527  0.10964  1.0000
  C   C235      1.0  0.84307  0.83231  0.13149  1.0000
  C  Sn22      1.0  0.82318  0.84131  0.21646  1.0000
  C  Sn23      1.0  0.80824  0.82291  0.28105  1.0000
  C   C236      1.0  0.81350  0.79589  0.25922  1.0000
  C  Sn24      1.0  0.83339  0.78687  0.17423  1.0000
  O  Te21      1.0  0.86830  0.79672  0.02429  1.0000
  O  Te22      1.0  0.81828  0.86844  0.23668  1.0000
  O  Te23      1.0  0.78825  0.83149  0.36644  1.0000
  O  Te24      1.0  0.83830  0.75976  0.15403  1.0000
  Mg  Mg11      1.0  0.78902  0.87040  0.36214  1.0000
  Mg  Mg12      1.0  0.86757  0.75778  0.02869  1.0000
  C  Sn25      1.0  0.83907  0.18925  0.77093  1.0000
  C   C237      1.0  0.83031  0.16279  0.77369  1.0000
  C  Sn26      1.0  0.79510  0.15520  0.74601  1.0000
  C  Sn27      1.0  0.76808  0.17446  0.71479  1.0000
  C   C238      1.0  0.77684  0.20090  0.71201  1.0000
  C  Sn28      1.0  0.81204  0.20850  0.73971  1.0000
  O  Te25      1.0  0.87443  0.19638  0.79892  1.0000
  O  Te26      1.0  0.78700  0.12863  0.74945  1.0000
  O  Te27      1.0  0.73270  0.16729  0.68679  1.0000
  O  Te28      1.0  0.82015  0.23505  0.73625  1.0000
  Mg  Mg13      1.0  0.73493  0.12865  0.70396  1.0000
  Mg  Mg14      1.0  0.87220  0.23505  0.78162  1.0000
  C  Sn29      1.0  0.19543  0.15927  0.82886  1.0000
  C   C239      1.0  0.16527  0.16016  0.85857  1.0000
  C  Sn30      1.0  0.14679  0.18361  0.84691  1.0000
  C  Sn31      1.0  0.15870  0.20666  0.80455  1.0000
  C   C240      1.0  0.18884  0.20576  0.77483  1.0000
  C  Sn32      1.0  0.20734  0.18232  0.78650  1.0000
  O  Te29      1.0  0.21349  0.13561  0.84121  1.0000
  O  Te30      1.0  0.11671  0.18402  0.87724  1.0000
  O  Te31      1.0  0.14062  0.23033  0.79222  1.0000
  O  Te32      1.0  0.23739  0.18191  0.75616  1.0000
  Mg  Mg15      1.0  0.10108  0.22096  0.84494  1.0000
  Mg  Mg16      1.0  0.25303  0.14497  0.78833  1.0000
  C  Sn33      1.0  0.47448  0.57262  0.99035  1.0000
  C   C241      1.0  0.40591  0.55374  0.06660  1.0000
  C  Sn34      1.0  0.43214  0.57419  0.19524  1.0000
  C  Sn35      1.0  0.41904  0.59722  0.24889  1.0000
  C   C242      1.0  0.37997  0.59931  0.17269  1.0000
  C  Sn36      1.0  0.35372  0.57887  0.04401  1.0000
  O  Te33      1.0  0.44877  0.55193  0.86199  1.0000
  O  Te34      1.0  0.47108  0.57164  0.26951  1.0000
  O  Te35      1.0  0.44479  0.61792  0.37736  1.0000
  O  Te36      1.0  0.42246  0.59819  0.96979  1.0000
  Mg  Mg17      1.0  0.49497  0.60517  0.43959  1.0000
  Mg  Mg18      1.0  0.39856  0.56467  0.79977  1.0000
  C  Sn37      1.0  0.39432  0.40042  0.69606  1.0000
  C   C243      1.0  0.36599  0.39898  0.73824  1.0000
  C  Sn38      1.0  0.34723  0.42156  0.74526  1.0000
  C  Sn39      1.0  0.35695  0.44609  0.70925  1.0000
  C   C244      1.0  0.38525  0.44751  0.66707  1.0000
  C  Sn40      1.0  0.40404  0.42494  0.66006  1.0000
  O  Te37      1.0  0.41271  0.37759  0.68980  1.0000
  O  Te38      1.0  0.31902  0.41964  0.78778  1.0000
  O  Te39      1.0  0.33853  0.46892  0.71555  1.0000
  O  Te40      1.0  0.43223  0.42686  0.61753  1.0000
  Mg  Mg19      1.0  0.30207  0.45626  0.77952  1.0000
  Mg  Mg20      1.0  0.44918  0.39025  0.62566  1.0000
  C  Sn41      1.0  0.07118  0.90553  0.58858  1.0000
  C   C245      1.0  0.11055  0.90521  0.66693  1.0000
  C  Sn42      1.0  0.13483  0.92689  0.78918  1.0000
  C  Sn43      1.0  0.11945  0.94936  0.83417  1.0000
  C   C246      1.0  0.08011  0.94966  0.75587  1.0000
  C  Sn44      1.0  0.05580  0.92799  0.63357  1.0000
  O  Te41      1.0  0.04744  0.88363  0.46671  1.0000
  O  Te42      1.0  0.17409  0.92612  0.86571  1.0000
  O  Te43      1.0  0.14323  0.97126  0.95615  1.0000
  O  Te44      1.0  0.01656  0.92876  0.55710  1.0000
  Mg  Mg21      1.0  0.08709  0.94401  0.02467  1.0000
  Mg  Mg22      1.0  0.99588  0.89409  0.39821  1.0000
  C  Sn45      1.0  0.41985  0.41193  0.21271  1.0000
  C   C247      1.0  0.38895  0.41041  0.23613  1.0000
  C  Sn46      1.0  0.36936  0.43298  0.23336  1.0000
  C  Sn47      1.0  0.38087  0.45758  0.20651  1.0000
  C   C248      1.0  0.41176  0.45909  0.18307  1.0000
  C  Sn48      1.0  0.43137  0.43653  0.18585  1.0000
  O  Te45      1.0  0.43902  0.38912  0.21596  1.0000
  O  Te46      1.0  0.33856  0.43097  0.25715  1.0000
  O  Te47      1.0  0.36168  0.48040  0.20328  1.0000
  O  Te48      1.0  0.46215  0.43853  0.16206  1.0000
  Mg  Mg23      1.0  0.32148  0.46760  0.24188  1.0000
  Mg  Mg24      1.0  0.47923  0.40191  0.17720  1.0000
  C  Sn49      1.0  0.30383  0.67791  0.24830  1.0000
  C   C249      1.0  0.30875  0.70471  0.23619  1.0000
  C  Sn50      1.0  0.32875  0.71238  0.15533  1.0000
  C  Sn51      1.0  0.34414  0.69287  0.08500  1.0000
  C   C250      1.0  0.33921  0.66609  0.09709  1.0000
  C  Sn52      1.0  0.31922  0.65839  0.17796  1.0000
  O  Te49      1.0  0.28373  0.67069  0.32968  1.0000
  O  Te50      1.0  0.33331  0.73929  0.14486  1.0000
  O  Te51      1.0  0.36425  0.70012  0.00358  1.0000
  O  Te52      1.0  0.31465  0.63150  0.18842  1.0000
  Mg  Mg25      1.0  0.36289  0.73925  0.02150  1.0000
  Mg  Mg26      1.0  0.28506  0.63152  0.31166  1.0000
  C  Sn53      1.0  0.72738  0.33029  0.93354  1.0000
  C   C251      1.0  0.71937  0.30348  0.93163  1.0000
  C  Sn54      1.0  0.68400  0.29486  0.89766  1.0000
  C  Sn55      1.0  0.65604  0.31341  0.86478  1.0000
  C   C252      1.0  0.66405  0.34020  0.86666  1.0000
  C  Sn56      1.0  0.69942  0.34884  0.90066  1.0000
  O  Te53      1.0  0.76293  0.33847  0.96780  1.0000
  O  Te54      1.0  0.67666  0.26796  0.89651  1.0000
  O  Te55      1.0  0.62047  0.30521  0.83051  1.0000
  O  Te56      1.0  0.70676  0.37572  0.90178  1.0000
  Mg  Mg27      1.0  0.62398  0.26649  0.84314  1.0000
  Mg  Mg28      1.0  0.75942  0.37721  0.95504  1.0000
  C  Sn57      1.0  0.90330  0.07454  0.68989  1.0000
  C   C253      1.0  0.90194  0.04996  0.74808  1.0000
  C  Sn58      1.0  0.87278  0.04309  0.77583  1.0000
  C  Sn59      1.0  0.84437  0.06117  0.74465  1.0000
  C   C254      1.0  0.84573  0.08574  0.68647  1.0000
  C  Sn60      1.0  0.87489  0.09262  0.65872  1.0000
  O  Te57      1.0  0.93272  0.08099  0.66302  1.0000
  O  Te58      1.0  0.87203  0.01840  0.83409  1.0000
  O  Te59      1.0  0.81494  0.05471  0.77159  1.0000
  O  Te60      1.0  0.87564  0.11729  0.60046  1.0000
  Mg  Mg29      1.0  0.82619  0.01872  0.85152  1.0000
  Mg  Mg30      1.0  0.92146  0.11699  0.58289  1.0000
  C  Sn61      1.0  0.62224  0.59176  0.37378  1.0000
  C   C255      1.0  0.65048  0.59246  0.33060  1.0000
  C  Sn62      1.0  0.65401  0.57074  0.22546  1.0000
  C  Sn63      1.0  0.62878  0.54785  0.16204  1.0000
  C   C256      1.0  0.60056  0.54717  0.20519  1.0000
  C  Sn64      1.0  0.59701  0.56888  0.31036  1.0000
  O  Te61      1.0  0.61923  0.61370  0.47907  1.0000
  O  Te62      1.0  0.68248  0.57189  0.18410  1.0000
  O  Te63      1.0  0.63181  0.52590  0.05667  1.0000
  O  Te64      1.0  0.56856  0.56773  0.35169  1.0000
  Mg  Mg31      1.0  0.67515  0.53699  0.03629  1.0000
  Mg  Mg32      1.0  0.57585  0.60263  0.49940  1.0000
