data_image0
_chemical_formula_structural       H40C128S16N48C2Sn2C2HTe2HMgC2Sn2C2HTe2HMgC2Sn2C2HTe2HMgC2Sn2C2HTe2HMgC2Sn2C2HTe2HMgC2Sn2C2HTe2HMgC2Sn2C2HTe2HMgC2Sn2C2HTe2HMgC2Sn2C2HTe2HMgC2Sn2C2HTe2HMgC2Sn2C2HTe2HMgC2Sn2C2HTe2HMgC2Sn2C2HTe2HMgC2Sn2C2HTe2HMgC2Sn2C2HTe2HMgC2Sn2C2HTe2HMgC2Sn2C2HTe2HMgC2Sn2C2HTe2HMgC2Sn2C2HTe2HMgC2Sn2C2HTe2HMgC2Sn2C2HTe2HMgC2Sn2C2HTe2HMgC2Sn2C2HTe2HMgC2Sn2C2HTe2HMgC2Sn2C2HTe2HMgC2Sn2C2HTe2HMgC2Sn2C2HTe2HMgC2Sn2C2HTe2HMgC2Sn2C2HTe2HMgC2Sn2C2HTe2HMgC2Sn2C2HTe2HMgC2Sn2C2HTe2HMg
_chemical_formula_sum              "H104 C256 S16 N48 Sn64 Te64 Mg32"
_cell_length_a       41.4087
_cell_length_b       50.7503
_cell_length_c       8.39205
_cell_angle_alpha    95.8963
_cell_angle_beta     122.104
_cell_angle_gamma    89.8641

_symmetry_space_group_name_H-M    'P1'
_space_group_IT_number       1

loop_
  _space_group_symop_operation_xyz
  'x, y, z'

loop_
  _atom_site_type_symbol
  _atom_site_label
  _atom_site_symmetry_multiplicity
  _atom_site_fract_x
  _atom_site_fract_y
  _atom_site_fract_z
  _atom_site_occupancy
  H   H1        1.0  0.64189  0.35946  0.46773  1.0000
  H   H2        1.0  0.55812  0.44731  0.48338  1.0000
  H   H3        1.0  0.12366  0.86264  0.23319  1.0000
  H   H4        1.0  0.03133  0.93857  0.16835  1.0000
  H   H5        1.0  0.38435  0.64799  0.08748  1.0000
  H   H6        1.0  0.46611  0.56130  0.02182  1.0000
  H   H7        1.0  0.88532  0.14434  0.19041  1.0000
  H   H8        1.0  0.96865  0.06873  0.17670  1.0000
  H   H9        1.0  0.39957  0.36892  0.33877  1.0000
  H   H10       1.0  0.49424  0.44778  0.42658  1.0000
  H   H11       1.0  0.89065  0.85598  0.14128  1.0000
  H   H12       1.0  0.97152  0.93743  0.15566  1.0000
  H   H13       1.0  0.63479  0.64338  0.26392  1.0000
  H   H14       1.0  0.52954  0.56009  0.06835  1.0000
  H   H15       1.0  0.12971  0.15205  0.31159  1.0000
  H   H16       1.0  0.02744  0.07026  0.17763  1.0000
  H   H17       1.0  0.63100  0.50103  0.32931  1.0000
  H   H18       1.0  0.12522  0.00819  0.31031  1.0000
  H   H19       1.0  0.39183  0.50475  0.14856  1.0000
  H   H20       1.0  0.90727  0.00369  0.32944  1.0000
  H   H21       1.0  0.62298  0.35860  0.89987  1.0000
  H   H22       1.0  0.52909  0.43642  0.92959  1.0000
  H   H23       1.0  0.11650  0.85688  0.80379  1.0000
  H   H24       1.0  0.02710  0.93166  0.81685  1.0000
  H   H25       1.0  0.35418  0.63091  0.58059  1.0000
  H   H26       1.0  0.43962  0.55676  0.56717  1.0000
  H   H27       1.0  0.86780  0.13865  0.70810  1.0000
  H   H28       1.0  0.96541  0.06257  0.82033  1.0000
  H   H29       1.0  0.37814  0.35606  0.82311  1.0000
  H   H30       1.0  0.46657  0.43566  0.87961  1.0000
  H   H31       1.0  0.86849  0.84911  0.68290  1.0000
  H   H32       1.0  0.96825  0.93076  0.81561  1.0000
  H   H33       1.0  0.60806  0.64141  0.81006  1.0000
  H   H34       1.0  0.50173  0.55728  0.60903  1.0000
  H   H35       1.0  0.10917  0.14316  0.84972  1.0000
  H   H36       1.0  0.02556  0.06312  0.83670  1.0000
  H   H37       1.0  0.60586  0.50090  0.85971  1.0000
  H   H38       1.0  0.08904  0.99620  0.66292  1.0000
  H   H39       1.0  0.35901  0.48859  0.57704  1.0000
  H   H40       1.0  0.87156  0.99337  0.68763  1.0000
  C   C1        1.0  0.74138  0.27524  0.34044  1.0000
  C   C2        1.0  0.77969  0.27741  0.38552  1.0000
  C   C3        1.0  0.72346  0.24937  0.25938  1.0000
  C   C4        1.0  0.66485  0.36408  0.44386  1.0000
  C   C5        1.0  0.58889  0.47958  0.34811  1.0000
  C   C6        1.0  0.55302  0.48101  0.33362  1.0000
  C   C7        1.0  0.53916  0.46187  0.39965  1.0000
  C   C8        1.0  0.23903  0.77899  0.24541  1.0000
  C   C9        1.0  0.27209  0.78158  0.23358  1.0000
  C   C10       1.0  0.22887  0.75186  0.23993  1.0000
  C   C11       1.0  0.15133  0.86766  0.25095  1.0000
  C   C12       1.0  0.07979  0.98213  0.26440  1.0000
  C   C13       1.0  0.04328  0.98105  0.24310  1.0000
  C   C14       1.0  0.02175  0.95682  0.20416  1.0000
  C   C15       1.0  0.28247  0.73173  0.20708  1.0000
  C   C16       1.0  0.24944  0.72916  0.21956  1.0000
  C   C17       1.0  0.29318  0.75894  0.21779  1.0000
  C   C18       1.0  0.36226  0.64331  0.11719  1.0000
  C   C19       1.0  0.43534  0.52749  0.14892  1.0000
  C   C20       1.0  0.47082  0.52629  0.15918  1.0000
  C   C21       1.0  0.48479  0.54598  0.09709  1.0000
  C   C22       1.0  0.78073  0.22945  0.26692  1.0000
  C   C23       1.0  0.74239  0.22731  0.22130  1.0000
  C   C24       1.0  0.79869  0.25532  0.34828  1.0000
  C   C25       1.0  0.86300  0.14056  0.22028  1.0000
  C   C26       1.0  0.94165  0.02782  0.27536  1.0000
  C   C27       1.0  0.97281  0.02844  0.24806  1.0000
  C   C28       1.0  0.98585  0.05158  0.21037  1.0000
  C   C29       1.0  0.28532  0.27936  0.26548  1.0000
  C   C30       1.0  0.24610  0.27971  0.20625  1.0000
  C   C31       1.0  0.30230  0.25587  0.34635  1.0000
  C   C32       1.0  0.36824  0.36900  0.24711  1.0000
  C   C33       1.0  0.43916  0.48104  0.21817  1.0000
  C   C34       1.0  0.47787  0.48174  0.26792  1.0000
  C   C35       1.0  0.50319  0.46215  0.36803  1.0000
  C   C36       1.0  0.79009  0.77168  0.22960  1.0000
  C   C37       1.0  0.75132  0.77199  0.17676  1.0000
  C   C38       1.0  0.80763  0.74825  0.30796  1.0000
  C   C39       1.0  0.86870  0.86027  0.17479  1.0000
  C   C40       1.0  0.94259  0.97909  0.26978  1.0000
  C   C41       1.0  0.97389  0.97946  0.24258  1.0000
  C   C42       1.0  0.98835  0.95607  0.20019  1.0000
  C   C43       1.0  0.74836  0.72654  0.27311  1.0000
  C   C44       1.0  0.78743  0.72643  0.32967  1.0000
  C   C45       1.0  0.73131  0.75041  0.20130  1.0000
  C   C46       1.0  0.66144  0.63803  0.27288  1.0000
  C   C47       1.0  0.58361  0.52493  0.25565  1.0000
  C   C48       1.0  0.54541  0.52500  0.21486  1.0000
  C   C49       1.0  0.52037  0.54528  0.12308  1.0000
  C   C50       1.0  0.24207  0.23452  0.30328  1.0000
  C   C51       1.0  0.28133  0.23429  0.36519  1.0000
  C   C52       1.0  0.22537  0.25823  0.22773  1.0000
  C   C53       1.0  0.15490  0.14656  0.30655  1.0000
  C   C54       1.0  0.07803  0.03094  0.26316  1.0000
  C   C55       1.0  0.04162  0.03003  0.24366  1.0000
  C   C56       1.0  0.01879  0.05238  0.20947  1.0000
  C   C57       1.0  0.60307  0.50173  0.31174  1.0000
  C   C58       1.0  0.53050  0.50325  0.25826  1.0000
  C   C59       1.0  0.09625  0.00712  0.27986  1.0000
  C   C60       1.0  0.02540  0.00520  0.24563  1.0000
  C   C61       1.0  0.41997  0.50439  0.16863  1.0000
  C   C62       1.0  0.49301  0.50373  0.22794  1.0000
  C   C63       1.0  0.92875  0.00347  0.29250  1.0000
  C   C64       1.0  0.99087  0.00435  0.24705  1.0000
  C   C65       1.0  0.72932  0.27429  0.84585  1.0000
  C   C66       1.0  0.76777  0.27502  0.89226  1.0000
  C   C67       1.0  0.70962  0.24899  0.75653  1.0000
  C   C68       1.0  0.64832  0.36393  0.89622  1.0000
  C   C69       1.0  0.56352  0.47477  0.84386  1.0000
  C   C70       1.0  0.52660  0.47402  0.82146  1.0000
  C   C71       1.0  0.51166  0.45264  0.86594  1.0000
  C   C72       1.0  0.21867  0.76956  0.73410  1.0000
  C   C73       1.0  0.25298  0.77074  0.73261  1.0000
  C   C74       1.0  0.20655  0.74299  0.72818  1.0000
  C   C75       1.0  0.13705  0.86070  0.76231  1.0000
  C   C76       1.0  0.05494  0.97215  0.71937  1.0000
  C   C77       1.0  0.02366  0.97192  0.74648  1.0000
  C   C78       1.0  0.01017  0.94896  0.78339  1.0000
  C   C79       1.0  0.26056  0.72049  0.71148  1.0000
  C   C80       1.0  0.22672  0.71944  0.71831  1.0000
  C   C81       1.0  0.27321  0.74721  0.72260  1.0000
  C   C82       1.0  0.32824  0.62736  0.58294  1.0000
  C   C83       1.0  0.40242  0.51536  0.60706  1.0000
  C   C84       1.0  0.44048  0.51705  0.64483  1.0000
  C   C85       1.0  0.45622  0.53960  0.61544  1.0000
  C   C86       1.0  0.76606  0.22656  0.76957  1.0000
  C   C87       1.0  0.72727  0.22608  0.71743  1.0000
  C   C88       1.0  0.78543  0.25201  0.85379  1.0000
  C   C89       1.0  0.84274  0.13411  0.71595  1.0000
  C   C90       1.0  0.91663  0.01929  0.72762  1.0000
  C   C91       1.0  0.95322  0.02007  0.74868  1.0000
  C   C92       1.0  0.97500  0.04415  0.78683  1.0000
  C   C93       1.0  0.26259  0.26818  0.75968  1.0000
  C   C94       1.0  0.22418  0.27043  0.71130  1.0000
  C   C95       1.0  0.27796  0.24406  0.83364  1.0000
  C   C96       1.0  0.34680  0.35645  0.74311  1.0000
  C   C97       1.0  0.41122  0.46956  0.69373  1.0000
  C   C98       1.0  0.45006  0.47185  0.74712  1.0000
  C   C99       1.0  0.47575  0.45189  0.83512  1.0000
  C   C100      1.0  0.75903  0.76640  0.71563  1.0000
  C   C101      1.0  0.71991  0.76702  0.65766  1.0000
  C   C102      1.0  0.77555  0.74247  0.78831  1.0000
  C   C103      1.0  0.84373  0.85427  0.69267  1.0000
  C   C104      1.0  0.91831  0.97046  0.73128  1.0000
  C   C105      1.0  0.95465  0.97107  0.74996  1.0000
  C   C106      1.0  0.97716  0.94853  0.78383  1.0000
  C   C107      1.0  0.71603  0.72199  0.75642  1.0000
  C   C108      1.0  0.75480  0.72113  0.81039  1.0000
  C   C109      1.0  0.69915  0.74560  0.67896  1.0000
  C   C110      1.0  0.63110  0.63545  0.78807  1.0000
  C   C111      1.0  0.55513  0.52111  0.76515  1.0000
  C   C112      1.0  0.51679  0.51941  0.71968  1.0000
  C   C113      1.0  0.49195  0.54027  0.64420  1.0000
  C   C114      1.0  0.21764  0.22546  0.80321  1.0000
  C   C115      1.0  0.25633  0.22360  0.85733  1.0000
  C   C116      1.0  0.20236  0.24972  0.73241  1.0000
  C   C117      1.0  0.13159  0.13841  0.82039  1.0000
  C   C118      1.0  0.05445  0.02099  0.72571  1.0000
  C   C119      1.0  0.02305  0.02097  0.75199  1.0000
  C   C120      1.0  0.00863  0.04453  0.79270  1.0000
  C   C121      1.0  0.57656  0.49892  0.82342  1.0000
  C   C122      1.0  0.50272  0.49615  0.75295  1.0000
  C   C123      1.0  0.06782  0.99647  0.70151  1.0000
  C   C124      1.0  0.00574  0.99621  0.74696  1.0000
  C   C125      1.0  0.38900  0.49117  0.62520  1.0000
  C   C126      1.0  0.46434  0.49498  0.71379  1.0000
  C   C127      1.0  0.90034  0.99438  0.71539  1.0000
  C   C128      1.0  0.97108  0.99577  0.74773  1.0000
  S   S1        1.0  0.67837  0.21169  0.10994  1.0000
  S   S2        1.0  0.19755  0.71178  0.23764  1.0000
  S   S3        1.0  0.32482  0.79912  0.22339  1.0000
  S   S4        1.0  0.84395  0.29289  0.50137  1.0000
  S   S5        1.0  0.34583  0.22222  0.49647  1.0000
  S   S6        1.0  0.85277  0.71582  0.46541  1.0000
  S   S7        1.0  0.68716  0.78404  0.06085  1.0000
  S   S8        1.0  0.18225  0.29253  0.09227  1.0000
  S   S9        1.0  0.66149  0.21317  0.58809  1.0000
  S   S10       1.0  0.17160  0.70441  0.71826  1.0000
  S   S11       1.0  0.30849  0.78606  0.73803  1.0000
  S   S12       1.0  0.83287  0.28837  0.00789  1.0000
  S   S13       1.0  0.31896  0.20868  0.96809  1.0000
  S   S14       1.0  0.81859  0.70821  0.92749  1.0000
  S   S15       1.0  0.65480  0.77831  0.51948  1.0000
  S   S16       1.0  0.16129  0.28519  0.60083  1.0000
  N   N1        1.0  0.68661  0.24242  0.20098  1.0000
  N   N2        1.0  0.71870  0.20490  0.13340  1.0000
  N   N3        1.0  0.67470  0.38819  0.44106  1.0000
  N   N4        1.0  0.19898  0.74376  0.25223  1.0000
  N   N5        1.0  0.23310  0.70555  0.21419  1.0000
  N   N6        1.0  0.16299  0.89190  0.26368  1.0000
  N   N7        1.0  0.32405  0.76722  0.21382  1.0000
  N   N8        1.0  0.28799  0.80521  0.23578  1.0000
  N   N9        1.0  0.35418  0.61929  0.12989  1.0000
  N   N10       1.0  0.83568  0.26218  0.40904  1.0000
  N   N11       1.0  0.80338  0.29977  0.47463  1.0000
  N   N12       1.0  0.85595  0.11729  0.24914  1.0000
  N   N13       1.0  0.33948  0.25055  0.41440  1.0000
  N   N14       1.0  0.30385  0.21427  0.45175  1.0000
  N   N15       1.0  0.35211  0.38932  0.16095  1.0000
  N   N16       1.0  0.84530  0.74410  0.38138  1.0000
  N   N17       1.0  0.81086  0.70691  0.41887  1.0000
  N   N18       1.0  0.86053  0.88420  0.20448  1.0000
  N   N19       1.0  0.69433  0.75551  0.13987  1.0000
  N   N20       1.0  0.72822  0.79201  0.09416  1.0000
  N   N21       1.0  0.67145  0.61377  0.27649  1.0000
  N   N22       1.0  0.18843  0.26359  0.16505  1.0000
  N   N23       1.0  0.22371  0.30026  0.12950  1.0000
  N   N24       1.0  0.16340  0.12217  0.29381  1.0000
  N   N25       1.0  0.67194  0.24352  0.68850  1.0000
  N   N26       1.0  0.70195  0.20469  0.61992  1.0000
  N   N27       1.0  0.65695  0.38807  0.88755  1.0000
  N   N28       1.0  0.17459  0.73628  0.72749  1.0000
  N   N29       1.0  0.20873  0.69659  0.71245  1.0000
  N   N30       1.0  0.14233  0.88402  0.72735  1.0000
  N   N31       1.0  0.30537  0.75413  0.72607  1.0000
  N   N32       1.0  0.27121  0.79378  0.74355  1.0000
  N   N33       1.0  0.31370  0.60362  0.55983  1.0000
  N   N34       1.0  0.82276  0.25768  0.91535  1.0000
  N   N35       1.0  0.79284  0.29671  0.98221  1.0000
  N   N36       1.0  0.83295  0.11015  0.72220  1.0000
  N   N37       1.0  0.31403  0.23710  0.88953  1.0000
  N   N38       1.0  0.27760  0.20274  0.93773  1.0000
  N   N39       1.0  0.32977  0.37747  0.67225  1.0000
  N   N40       1.0  0.81244  0.73689  0.85089  1.0000
  N   N41       1.0  0.77717  0.70075  0.89179  1.0000
  N   N42       1.0  0.83485  0.87856  0.70548  1.0000
  N   N43       1.0  0.66156  0.75018  0.60475  1.0000
  N   N44       1.0  0.69695  0.78668  0.56699  1.0000
  N   N45       1.0  0.63813  0.61091  0.76655  1.0000
  N   N46       1.0  0.16583  0.25606  0.67063  1.0000
  N   N47       1.0  0.20325  0.29177  0.63985  1.0000
  N   N48       1.0  0.13942  0.11430  0.79242  1.0000
  C   C129      1.0  0.72109  0.34280  0.37428  1.0000
  C   C130      1.0  0.69006  0.34301  0.39740  1.0000
  C  Sn1       1.0  0.67551  0.31947  0.41551  1.0000
  C  Sn2       1.0  0.69240  0.29530  0.41039  1.0000
  C   C131      1.0  0.72345  0.29530  0.38734  1.0000
  C   C132      1.0  0.73778  0.31897  0.36929  1.0000
  H   H41       1.0  0.73219  0.36112  0.36042  1.0000
  O  Te1       1.0  0.64449  0.32004  0.43844  1.0000
  O  Te2       1.0  0.67843  0.27148  0.42823  1.0000
  H   H42       1.0  0.76182  0.31880  0.35152  1.0000
  Mg  Mg1       1.0  0.63565  0.28243  0.45666  1.0000
  C   C133      1.0  0.66066  0.45460  0.50012  1.0000
  C   C134      1.0  0.62133  0.45670  0.41515  1.0000
  C  Sn3       1.0  0.59677  0.43387  0.34540  1.0000
  C  Sn4       1.0  0.61196  0.40851  0.36125  1.0000
  C   C135      1.0  0.65136  0.40662  0.44661  1.0000
  C   C136      1.0  0.67567  0.42959  0.51588  1.0000
  H   H43       1.0  0.67948  0.47237  0.55380  1.0000
  O  Te3       1.0  0.55755  0.43633  0.26086  1.0000
  O  Te4       1.0  0.58807  0.38537  0.29280  1.0000
  H   H44       1.0  0.70612  0.42796  0.58176  1.0000
  Mg  Mg2       1.0  0.53661  0.39899  0.18906  1.0000
  C   C137      1.0  0.16071  0.81190  0.22416  1.0000
  C   C138      1.0  0.17094  0.83909  0.26244  1.0000
  C  Sn5       1.0  0.20576  0.84824  0.29244  1.0000
  C  Sn6       1.0  0.23074  0.82979  0.28382  1.0000
  C   C139      1.0  0.22023  0.80264  0.24529  1.0000
  C   C140      1.0  0.18532  0.79369  0.21556  1.0000
  H   H45       1.0  0.13369  0.80498  0.20105  1.0000
  O  Te5       1.0  0.21554  0.87547  0.33059  1.0000
  O  Te6       1.0  0.26571  0.83840  0.31317  1.0000
  H   H46       1.0  0.17740  0.77265  0.18580  1.0000
  Mg  Mg3       1.0  0.26630  0.87748  0.36064  1.0000
  C   C141      1.0  0.13342  0.95561  0.19652  1.0000
  C   C142      1.0  0.10537  0.95814  0.24087  1.0000
  C  Sn7       1.0  0.09752  0.93782  0.31807  1.0000
  C  Sn8       1.0  0.11819  0.91455  0.35138  1.0000
  C   C143      1.0  0.14622  0.91222  0.30665  1.0000
  C   C144      1.0  0.15383  0.93268  0.22940  1.0000
  H   H47       1.0  0.13932  0.97144  0.13684  1.0000
  O  Te7       1.0  0.06939  0.94066  0.36150  1.0000
  O  Te8       1.0  0.11094  0.89394  0.42847  1.0000
  H   H48       1.0  0.17556  0.93072  0.19519  1.0000
  Mg  Mg4       1.0  0.06987  0.90711  0.46404  1.0000
  C   C145      1.0  0.30568  0.66406  0.18611  1.0000
  C   C146      1.0  0.33302  0.66353  0.13657  1.0000
  C  Sn9       1.0  0.34722  0.68711  0.11707  1.0000
  C  Sn10      1.0  0.33376  0.71166  0.14788  1.0000
  C   C147      1.0  0.30643  0.71199  0.19752  1.0000
  C   C148      1.0  0.29240  0.68826  0.21660  1.0000
  H   H49       1.0  0.29483  0.64571  0.20098  1.0000
  O  Te9       1.0  0.37452  0.68622  0.06742  1.0000
  O  Te10      1.0  0.34749  0.73553  0.12941  1.0000
  H   H50       1.0  0.27125  0.68868  0.25508  1.0000
  Mg  Mg5       1.0  0.38452  0.72406  0.05931  1.0000
  C   C149      1.0  0.43467  0.58463  0.21573  1.0000
  C   C150      1.0  0.42072  0.55810  0.15936  1.0000
  C  Sn11      1.0  0.38170  0.55156  0.07241  1.0000
  C  Sn12      1.0  0.35626  0.57200  0.04146  1.0000
  C   C151      1.0  0.37051  0.59849  0.09825  1.0000
  C   C152      1.0  0.40960  0.60480  0.18519  1.0000
  H   H51       1.0  0.46492  0.58952  0.28290  1.0000
  O  Te11      1.0  0.36824  0.52495  0.01704  1.0000
  O  Te12      1.0  0.42480  0.58281  0.95481  1.0000
  H   H52       1.0  0.42040  0.62535  0.22870  1.0000
  Mg  Mg6       1.0  0.42019  0.54358  0.90453  1.0000
  C   C153      1.0  0.83910  0.20753  0.21267  1.0000
  C   C154      1.0  0.80721  0.20805  0.22886  1.0000
  C  Sn13      1.0  0.79266  0.18485  0.25114  1.0000
  C  Sn14      1.0  0.81044  0.16071  0.25732  1.0000
  C   C155      1.0  0.84235  0.16041  0.24113  1.0000
  C   C156      1.0  0.85666  0.18373  0.21883  1.0000
  H   H53       1.0  0.85019  0.22558  0.19552  1.0000
  O  Te13      1.0  0.76077  0.18572  0.26703  1.0000
  O  Te14      1.0  0.79651  0.13724  0.27953  1.0000
  H   H54       1.0  0.88137  0.18333  0.20642  1.0000
  Mg  Mg7       1.0  0.75235  0.14851  0.29508  1.0000
  C   C157      1.0  0.93909  0.08446  0.36344  1.0000
  C   C158      1.0  0.92689  0.05758  0.31467  1.0000
  C  Sn15      1.0  0.88820  0.04988  0.22711  1.0000
  C  Sn16      1.0  0.86130  0.06950  0.18778  1.0000
  C   C159      1.0  0.87379  0.09634  0.23701  1.0000
  C   C160      1.0  0.91257  0.10383  0.32464  1.0000
  H   H55       1.0  0.96910  0.09026  0.43115  1.0000
  O  Te15      1.0  0.87650  0.02293  0.17939  1.0000
  O  Te16      1.0  0.82246  0.06235  0.10032  1.0000
  H   H56       1.0  0.92201  0.12464  0.36227  1.0000
  Mg  Mg8       1.0  0.82050  0.02310  0.06238  1.0000
  C   C161      1.0  0.29816  0.33685  0.08819  1.0000
  C   C162      1.0  0.33623  0.34613  0.21376  1.0000
  C  Sn17      1.0  0.36101  0.33173  0.36131  1.0000
  C  Sn18      1.0  0.34735  0.30760  0.38316  1.0000
  C   C163      1.0  0.30922  0.29847  0.25669  1.0000
  C   C164      1.0  0.28467  0.31305  0.10958  1.0000
  H   H57       1.0  0.38683  0.36489  0.97429  1.0000
  O  Te17      1.0  0.39895  0.34129  0.48556  1.0000
  O  Te18      1.0  0.37150  0.29281  0.52934  1.0000
  H   H58       1.0  0.25520  0.30585  0.01230  1.0000
  Mg  Mg9       1.0  0.42083  0.31405  0.66254  1.0000
  C   C165      1.0  0.41357  0.41174  0.14902  1.0000
  C   C166      1.0  0.38528  0.40952  0.19079  1.0000
  C  Sn19      1.0  0.37181  0.43226  0.23940  1.0000
  C  Sn20      1.0  0.38699  0.45768  0.24616  1.0000
  C   C167      1.0  0.41527  0.45969  0.20401  1.0000
  C   C168      1.0  0.42855  0.43680  0.15559  1.0000
  H   H59       1.0  0.42383  0.39403  0.11146  1.0000
  O  Te19      1.0  0.34355  0.42968  0.28078  1.0000
  O  Te20      1.0  0.37404  0.48074  0.29426  1.0000
  H   H60       1.0  0.45043  0.43853  0.12314  1.0000
  Mg  Mg10      1.0  0.33517  0.46695  0.33888  1.0000
  C   C169      1.0  0.80264  0.82776  0.24340  1.0000
  C   C170      1.0  0.80571  0.80058  0.21066  1.0000
  C  Sn21      1.0  0.83295  0.79164  0.17118  1.0000
  C  Sn22      1.0  0.85754  0.81031  0.16450  1.0000
  C   C171      1.0  0.85425  0.83746  0.19759  1.0000
  C   C172      1.0  0.82689  0.84618  0.23691  1.0000
  H   H61       1.0  0.78148  0.83452  0.27392  1.0000
  O  Te21      1.0  0.83563  0.76442  0.13874  1.0000
  O  Te22      1.0  0.88503  0.80192  0.12542  1.0000
  H   H62       1.0  0.82453  0.86723  0.26237  1.0000
  Mg  Mg11      1.0  0.87762  0.76274  0.09103  1.0000
  C   C173      1.0  0.94186  0.92329  0.32478  1.0000
  C   C174      1.0  0.92851  0.94855  0.28358  1.0000
  C  Sn23      1.0  0.89026  0.95304  0.21592  1.0000
  C  Sn24      1.0  0.86498  0.93182  0.18920  1.0000
  C   C175      1.0  0.87862  0.90662  0.23096  1.0000
  C   C176      1.0  0.91695  0.90235  0.29853  1.0000
  H   H63       1.0  0.97152  0.91999  0.37716  1.0000
  O  Te23      1.0  0.87739  0.97840  0.17540  1.0000
  O  Te24      1.0  0.82661  0.93575  0.12182  1.0000
  H   H64       1.0  0.92728  0.88279  0.33053  1.0000
  Mg  Mg12      1.0  0.82262  0.97387  0.08669  1.0000
  C   C177      1.0  0.67788  0.69365  0.31496  1.0000
  C   C178      1.0  0.68012  0.66654  0.27492  1.0000
  C  Sn25      1.0  0.70841  0.65765  0.24310  1.0000
  C  Sn26      1.0  0.73491  0.67631  0.25167  1.0000
  C   C179      1.0  0.73245  0.70339  0.29196  1.0000
  C   C180      1.0  0.70402  0.71207  0.32350  1.0000
  H   H65       1.0  0.65590  0.70037  0.33947  1.0000
  O  Te25      1.0  0.71023  0.63049  0.20321  1.0000
  O  Te26      1.0  0.76348  0.66797  0.22052  1.0000
  H   H66       1.0  0.70231  0.73306  0.35462  1.0000
  Mg  Mg13      1.0  0.75427  0.62887  0.17108  1.0000
  C   C181      1.0  0.64028  0.54818  0.20077  1.0000
  C   C182      1.0  0.61313  0.54681  0.25080  1.0000
  C  Sn27      1.0  0.60251  0.56997  0.31205  1.0000
  C  Sn28      1.0  0.61943  0.59492  0.32322  1.0000
  C   C183      1.0  0.64654  0.59607  0.27271  1.0000
  C   C184      1.0  0.65697  0.57278  0.21167  1.0000
  H   H67       1.0  0.64833  0.53016  0.15343  1.0000
  O  Te27      1.0  0.57536  0.56825  0.36157  1.0000
  O  Te28      1.0  0.60933  0.61837  0.38390  1.0000
  H   H68       1.0  0.67797  0.57384  0.17282  1.0000
  Mg  Mg14      1.0  0.57099  0.60577  0.43597  1.0000
  C   C185      1.0  0.17145  0.20216  0.34652  1.0000
  C   C186      1.0  0.17366  0.17499  0.30826  1.0000
  C  Sn29      1.0  0.20178  0.16590  0.27578  1.0000
  C  Sn30      1.0  0.22815  0.18441  0.28186  1.0000
  C   C187      1.0  0.22572  0.21155  0.32038  1.0000
  C   C188      1.0  0.19746  0.22043  0.35262  1.0000
  H   H69       1.0  0.14960  0.20903  0.37156  1.0000
  O  Te29      1.0  0.20357  0.13868  0.23768  1.0000
  O  Te30      1.0  0.25655  0.17587  0.24999  1.0000
  H   H70       1.0  0.19578  0.24147  0.38236  1.0000
  Mg  Mg15      1.0  0.24736  0.13677  0.20367  1.0000
  C   C189      1.0  0.12960  0.05689  0.18982  1.0000
  C   C190      1.0  0.10539  0.05437  0.25685  1.0000
  C  Sn31      1.0  0.09826  0.07658  0.34411  1.0000
  C  Sn32      1.0  0.11574  0.10175  0.36440  1.0000
  C   C191      1.0  0.13989  0.10407  0.29676  1.0000
  C   C192      1.0  0.14684  0.08171  0.20972  1.0000
  H   H71       1.0  0.13496  0.03960  0.12238  1.0000
  O  Te31      1.0  0.07401  0.07371  0.41033  1.0000
  O  Te32      1.0  0.10910  0.12427  0.45099  1.0000
  H   H72       1.0  0.16557  0.08367  0.15773  1.0000
  Mg  Mg16      1.0  0.07384  0.11026  0.51833  1.0000
  C   C193      1.0  0.67173  0.29706  0.90233  1.0000
  C   C194      1.0  0.70173  0.29596  0.87139  1.0000
  C  Sn33      1.0  0.71812  0.31925  0.86114  1.0000
  C  Sn34      1.0  0.70416  0.34408  0.88235  1.0000
  C   C195      1.0  0.67416  0.34497  0.91338  1.0000
  C   C196      1.0  0.65796  0.32154  0.92334  1.0000
  H   H73       1.0  0.65921  0.27894  0.91013  1.0000
  O  Te33      1.0  0.74806  0.31779  0.83008  1.0000
  O  Te34      1.0  0.72003  0.36766  0.87279  1.0000
  H   H74       1.0  0.63475  0.32240  0.94741  1.0000
  Mg  Mg17      1.0  0.76030  0.35541  0.82810  1.0000
  C   C197      1.0  0.63282  0.43852  0.80156  1.0000
  C   C198      1.0  0.63900  0.41564  0.89117  1.0000
  C  Sn35      1.0  0.61810  0.40989  0.97158  1.0000
  C  Sn36      1.0  0.59050  0.42741  0.96182  1.0000
  C   C199      1.0  0.58451  0.45024  0.87173  1.0000
  C   C200      1.0  0.60559  0.45581  0.79180  1.0000
  H   H75       1.0  0.64911  0.44282  0.73962  1.0000
  O  Te35      1.0  0.51699  0.37017  0.06065  1.0000
  O  Te36      1.0  0.46155  0.40536  0.04093  1.0000
  H   H76       1.0  0.60078  0.47351  0.72231  1.0000
  Mg  Mg18      1.0  0.48082  0.37159  0.14727  1.0000
  C   C201      1.0  0.16414  0.79481  0.80496  1.0000
  C   C202      1.0  0.18994  0.79189  0.74605  1.0000
  C  Sn37      1.0  0.20141  0.81360  0.69405  1.0000
  C  Sn38      1.0  0.18674  0.83868  0.70136  1.0000
  C   C203      1.0  0.16097  0.84141  0.76062  1.0000
  C   C204      1.0  0.14967  0.81955  0.81228  1.0000
  H   H77       1.0  0.15542  0.77790  0.84503  1.0000
  O  Te37      1.0  0.22719  0.81033  0.63546  1.0000
  O  Te38      1.0  0.19774  0.86072  0.65025  1.0000
  H   H78       1.0  0.12972  0.82182  0.85800  1.0000
  Mg  Mg19      1.0  0.23355  0.84628  0.57991  1.0000
  C   C205      1.0  0.07054  0.90347  0.63806  1.0000
  C   C206      1.0  0.10909  0.90301  0.69764  1.0000
  C  Sn39      1.0  0.13265  0.92636  0.77684  1.0000
  C  Sn40      1.0  0.11724  0.95059  0.79662  1.0000
  C   C207      1.0  0.07864  0.95084  0.73669  1.0000
  C   C208      1.0  0.05532  0.92736  0.65757  1.0000
  H   H79       1.0  0.05250  0.88531  0.57694  1.0000
  O  Te39      1.0  0.17110  0.92555  0.83557  1.0000
  O  Te40      1.0  0.14015  0.97422  0.87536  1.0000
  H   H80       1.0  0.02548  0.92772  0.61156  1.0000
  Mg  Mg20      1.0  0.19080  0.96297  0.93425  1.0000
  C   C209      1.0  0.31753  0.69590  0.65454  1.0000
  C   C210      1.0  0.28600  0.69772  0.67331  1.0000
  C  Sn41      1.0  0.26786  0.67481  0.67691  1.0000
  C  Sn42      1.0  0.28161  0.64964  0.66145  1.0000
  C   C211      1.0  0.31319  0.64804  0.64286  1.0000
  C   C212      1.0  0.33112  0.67109  0.63936  1.0000
  H   H81       1.0  0.33141  0.71373  0.65194  1.0000
  O  Te41      1.0  0.23638  0.67698  0.69568  1.0000
  O  Te42      1.0  0.26403  0.62643  0.66471  1.0000
  H   H82       1.0  0.35555  0.66967  0.62495  1.0000
  Mg  Mg21      1.0  0.22207  0.63964  0.69278  1.0000
  C   C213      1.0  0.37166  0.56547  0.44531  1.0000
  C   C214      1.0  0.37605  0.54263  0.53319  1.0000
  C  Sn43      1.0  0.35549  0.53845  0.61798  1.0000
  C  Sn44      1.0  0.33008  0.55753  0.61446  1.0000
  C   C215      1.0  0.32587  0.58030  0.52606  1.0000
  C   C216      1.0  0.34659  0.58429  0.44170  1.0000
  H   H83       1.0  0.38768  0.56856  0.37995  1.0000
  O  Te43      1.0  0.36022  0.51553  0.70524  1.0000
  O  Te44      1.0  0.30916  0.55384  0.69805  1.0000
  H   H84       1.0  0.34317  0.60197  0.37357  1.0000
  Mg  Mg22      1.0  0.32543  0.51943  0.79965  1.0000
  C   C217      1.0  0.83262  0.18961  0.70770  1.0000
  C   C218      1.0  0.82695  0.16342  0.72962  1.0000
  C  Sn45      1.0  0.79734  0.15637  0.75361  1.0000
  C  Sn46      1.0  0.77298  0.17594  0.75559  1.0000
  C   C219      1.0  0.77888  0.20208  0.73342  1.0000
  C   C220      1.0  0.80861  0.20892  0.70957  1.0000
  H   H85       1.0  0.85561  0.19490  0.68914  1.0000
  O  Te45      1.0  0.79208  0.13011  0.77538  1.0000
  O  Te46      1.0  0.74316  0.16943  0.77927  1.0000
  H   H86       1.0  0.81297  0.22920  0.69248  1.0000
  Mg  Mg23      1.0  0.74751  0.13099  0.80343  1.0000
  C   C221      1.0  0.89446  0.07285  0.62716  1.0000
  C   C222      1.0  0.89664  0.04909  0.70222  1.0000
  C  Sn47      1.0  0.87479  0.04439  0.77946  1.0000
  C  Sn48      1.0  0.85032  0.06386  0.78133  1.0000
  C   C223      1.0  0.84831  0.08755  0.70576  1.0000
  C   C224      1.0  0.87031  0.09206  0.62888  1.0000
  H   H87       1.0  0.91146  0.07633  0.56758  1.0000
  O  Te47      1.0  0.87733  0.02056  0.85393  1.0000
  O  Te48      1.0  0.82815  0.05967  0.85759  1.0000
  H   H88       1.0  0.86860  0.11044  0.57067  1.0000
  Mg  Mg24      1.0  0.84149  0.02405  0.94222  1.0000
  C   C225      1.0  0.34470  0.30814  0.88262  1.0000
  C   C226      1.0  0.33195  0.32698  0.75458  1.0000
  C  Sn49      1.0  0.29312  0.32746  0.61687  1.0000
  C  Sn50      1.0  0.26663  0.30872  0.60755  1.0000
  C   C227      1.0  0.27966  0.28996  0.73638  1.0000
  C   C228      1.0  0.31858  0.28965  0.87357  1.0000
  H   H89       1.0  0.37480  0.30791  0.98884  1.0000
  O  Te49      1.0  0.28087  0.34641  0.49001  1.0000
  O  Te50      1.0  0.22766  0.30876  0.47138  1.0000
  H   H90       1.0  0.32844  0.27508  0.97276  1.0000
  Mg  Mg25      1.0  0.22490  0.33847  0.32983  1.0000
  C   C229      1.0  0.35531  0.44432  0.74017  1.0000
  C   C230      1.0  0.38715  0.44595  0.72420  1.0000
  C  Sn51      1.0  0.39989  0.42308  0.67246  1.0000
  C  Sn52      1.0  0.38034  0.39814  0.63606  1.0000
  C   C231      1.0  0.34851  0.39672  0.65229  1.0000
  C   C232      1.0  0.33601  0.41974  0.70422  1.0000
  H   H91       1.0  0.34562  0.46213  0.78024  1.0000
  O  Te51      1.0  0.43176  0.42506  0.65723  1.0000
  O  Te52      1.0  0.39246  0.37497  0.58404  1.0000
  H   H92       1.0  0.31134  0.41847  0.71645  1.0000
  Mg  Mg26      1.0  0.43734  0.38786  0.58212  1.0000
  C   C233      1.0  0.83034  0.79863  0.67625  1.0000
  C   C234      1.0  0.82364  0.82562  0.67996  1.0000
  C  Sn53      1.0  0.79509  0.83472  0.70903  1.0000
  C  Sn54      1.0  0.77288  0.81642  0.73487  1.0000
  C   C235      1.0  0.77982  0.78946  0.73104  1.0000
  C   C236      1.0  0.80845  0.78056  0.70179  1.0000
  H   H93       1.0  0.85251  0.79174  0.65372  1.0000
  O  Te53      1.0  0.78877  0.86176  0.71227  1.0000
  O  Te54      1.0  0.74417  0.82498  0.76425  1.0000
  H   H94       1.0  0.81365  0.75966  0.69904  1.0000
  Mg  Mg27      1.0  0.74637  0.86378  0.75692  1.0000
  C   C237      1.0  0.89843  0.91358  0.63019  1.0000
  C   C238      1.0  0.89698  0.93999  0.69109  1.0000
  C  Sn55      1.0  0.87537  0.94639  0.77123  1.0000
  C  Sn56      1.0  0.85486  0.92591  0.79063  1.0000
  C   C239      1.0  0.85652  0.89955  0.72940  1.0000
  C   C240      1.0  0.87822  0.89337  0.64934  1.0000
  H   H95       1.0  0.91524  0.90880  0.56835  1.0000
  O  Te55      1.0  0.87423  0.97288  0.83126  1.0000
  O  Te56      1.0  0.83305  0.93174  0.87029  1.0000
  H   H96       1.0  0.87936  0.87292  0.60232  1.0000
  Mg  Mg28      1.0  0.84047  0.97085  0.93083  1.0000
  C   C241      1.0  0.70117  0.66604  0.73607  1.0000
  C   C242      1.0  0.69648  0.69326  0.75226  1.0000
  C  Sn57      1.0  0.66979  0.70276  0.79408  1.0000
  C  Sn58      1.0  0.64744  0.68462  0.82015  1.0000
  C   C243      1.0  0.65236  0.65743  0.80379  1.0000
  C   C244      1.0  0.67914  0.64814  0.76183  1.0000
  H   H97       1.0  0.72191  0.65885  0.70371  1.0000
  O  Te57      1.0  0.66546  0.73002  0.80968  1.0000
  O  Te58      1.0  0.62056  0.69358  0.86214  1.0000
  H   H98       1.0  0.68279  0.62706  0.74943  1.0000
  Mg  Mg29      1.0  0.62511  0.73256  0.86888  1.0000
  C   C245      1.0  0.62058  0.55706  0.70585  1.0000
  C   C246      1.0  0.61837  0.58388  0.75440  1.0000
  C  Sn59      1.0  0.59382  0.59155  0.81509  1.0000
  C  Sn60      1.0  0.57110  0.57195  0.82731  1.0000
  C   C247      1.0  0.57354  0.54516  0.77855  1.0000
  C   C248      1.0  0.59819  0.53771  0.71794  1.0000
  H   H99       1.0  0.63967  0.55129  0.65906  1.0000
  O  Te59      1.0  0.59196  0.61844  0.86298  1.0000
  O  Te60      1.0  0.54634  0.57906  0.88760  1.0000
  H   H100      1.0  0.59991  0.51694  0.68048  1.0000
  Mg  Mg30      1.0  0.55387  0.61824  0.93727  1.0000
  C   C249      1.0  0.14750  0.19425  0.85602  1.0000
  C   C250      1.0  0.14841  0.16706  0.81164  1.0000
  C  Sn61      1.0  0.17511  0.15768  0.76958  1.0000
  C  Sn62      1.0  0.20137  0.17590  0.77218  1.0000
  C   C251      1.0  0.20024  0.20306  0.81689  1.0000
  C   C252      1.0  0.17339  0.21224  0.85868  1.0000
  H   H101      1.0  0.12674  0.20135  0.88847  1.0000
  O  Te61      1.0  0.17561  0.13046  0.72547  1.0000
  O  Te62      1.0  0.22837  0.16707  0.73077  1.0000
  H   H102      1.0  0.17272  0.23329  0.89316  1.0000
  Mg  Mg31      1.0  0.21775  0.12808  0.67903  1.0000
  C   C253      1.0  0.13386  0.06090  0.81414  1.0000
  C   C254      1.0  0.12059  0.08569  0.75745  1.0000
  C  Sn63      1.0  0.08243  0.09077  0.68777  1.0000
  C  Sn64      1.0  0.05716  0.07063  0.67480  1.0000
  C   C255      1.0  0.07072  0.04590  0.73200  1.0000
  C   C256      1.0  0.10896  0.04102  0.80147  1.0000
  H   H103      1.0  0.16345  0.05713  0.86798  1.0000
  O  Te63      1.0  0.06964  0.11565  0.63168  1.0000
  O  Te64      1.0  0.01889  0.07518  0.60575  1.0000
  H   H104      1.0  0.11923  0.02183  0.84546  1.0000
  Mg  Mg32      1.0  0.01498  0.11228  0.54691  1.0000
