data_image0
_chemical_formula_structural       H40C128S16N48SnCSn2CSnTe4Mg2SnCSn2CSnTe4Mg2SnCSn2CSnTe4Mg2SnCSn2CSnTe4Mg2SnCSn2CSnTe4Mg2SnCSn2CSnTe4Mg2SnCSn2CSnTe4Mg2SnCSn2CSnTe4Mg2SnCSn2CSnTe4Mg2SnCSn2CSnTe4Mg2SnCSn2CSnTe4Mg2SnCSn2CSnTe4Mg2SnCSn2CSnTe4Mg2SnCSn2CSnTe4Mg2SnCSn2CSnTe4Mg2SnCSn2CSnTe4Mg2SnCSn2CSnTe4Mg2SnCSn2CSnTe4Mg2SnCSn2CSnTe4Mg2SnCSn2CSnTe4Mg2SnCSn2CSnTe4Mg2SnCSn2CSnTe4Mg2SnCSn2CSnTe4Mg2SnCSn2CSnTe4Mg2SnCSn2CSnTe4Mg2SnCSn2CSnTe4Mg2SnCSn2CSnTe4Mg2SnCSn2CSnTe4Mg2SnCSn2CSnTe4Mg2SnCSn2CSnTe4Mg2SnCSn2CSnTe4Mg2SnCSn2CSnTe4Mg2
_chemical_formula_sum              "H40 C192 S16 N48 Sn128 Te128 Mg64"
_cell_length_a       41.4087
_cell_length_b       50.7503
_cell_length_c       8.39205
_cell_angle_alpha    95.8963
_cell_angle_beta     122.104
_cell_angle_gamma    89.8641

_symmetry_space_group_name_H-M    'P1'
_space_group_IT_number       1

loop_
  _space_group_symop_operation_xyz
  'x, y, z'

loop_
  _atom_site_type_symbol
  _atom_site_label
  _atom_site_symmetry_multiplicity
  _atom_site_fract_x
  _atom_site_fract_y
  _atom_site_fract_z
  _atom_site_occupancy
  H   H1        1.0  0.64189  0.35946  0.46773  1.0000
  H   H2        1.0  0.55812  0.44731  0.48338  1.0000
  H   H3        1.0  0.12366  0.86264  0.23319  1.0000
  H   H4        1.0  0.03133  0.93857  0.16835  1.0000
  H   H5        1.0  0.38435  0.64799  0.08748  1.0000
  H   H6        1.0  0.46611  0.56130  0.02182  1.0000
  H   H7        1.0  0.88532  0.14434  0.19041  1.0000
  H   H8        1.0  0.96865  0.06873  0.17670  1.0000
  H   H9        1.0  0.39957  0.36892  0.33877  1.0000
  H   H10       1.0  0.49424  0.44778  0.42658  1.0000
  H   H11       1.0  0.89065  0.85598  0.14128  1.0000
  H   H12       1.0  0.97152  0.93743  0.15566  1.0000
  H   H13       1.0  0.63479  0.64338  0.26392  1.0000
  H   H14       1.0  0.52954  0.56009  0.06835  1.0000
  H   H15       1.0  0.12971  0.15205  0.31159  1.0000
  H   H16       1.0  0.02744  0.07026  0.17763  1.0000
  H   H17       1.0  0.63100  0.50103  0.32931  1.0000
  H   H18       1.0  0.12522  0.00819  0.31031  1.0000
  H   H19       1.0  0.39183  0.50475  0.14856  1.0000
  H   H20       1.0  0.90727  0.00369  0.32944  1.0000
  H   H21       1.0  0.62298  0.35860  0.89987  1.0000
  H   H22       1.0  0.52909  0.43642  0.92959  1.0000
  H   H23       1.0  0.11650  0.85688  0.80379  1.0000
  H   H24       1.0  0.02710  0.93166  0.81685  1.0000
  H   H25       1.0  0.35418  0.63091  0.58059  1.0000
  H   H26       1.0  0.43962  0.55676  0.56717  1.0000
  H   H27       1.0  0.86780  0.13865  0.70810  1.0000
  H   H28       1.0  0.96541  0.06257  0.82033  1.0000
  H   H29       1.0  0.37814  0.35606  0.82311  1.0000
  H   H30       1.0  0.46657  0.43566  0.87961  1.0000
  H   H31       1.0  0.86849  0.84911  0.68290  1.0000
  H   H32       1.0  0.96825  0.93076  0.81561  1.0000
  H   H33       1.0  0.60806  0.64141  0.81006  1.0000
  H   H34       1.0  0.50173  0.55728  0.60903  1.0000
  H   H35       1.0  0.10917  0.14316  0.84972  1.0000
  H   H36       1.0  0.02556  0.06312  0.83670  1.0000
  H   H37       1.0  0.60586  0.50090  0.85971  1.0000
  H   H38       1.0  0.08904  0.99620  0.66292  1.0000
  H   H39       1.0  0.35901  0.48859  0.57704  1.0000
  H   H40       1.0  0.87156  0.99337  0.68763  1.0000
  C   C1        1.0  0.74138  0.27524  0.34044  1.0000
  C   C2        1.0  0.77969  0.27741  0.38552  1.0000
  C   C3        1.0  0.72346  0.24937  0.25938  1.0000
  C   C4        1.0  0.66485  0.36408  0.44386  1.0000
  C   C5        1.0  0.58889  0.47958  0.34811  1.0000
  C   C6        1.0  0.55302  0.48101  0.33362  1.0000
  C   C7        1.0  0.53916  0.46187  0.39965  1.0000
  C   C8        1.0  0.23903  0.77899  0.24541  1.0000
  C   C9        1.0  0.27209  0.78158  0.23358  1.0000
  C   C10       1.0  0.22887  0.75186  0.23993  1.0000
  C   C11       1.0  0.15133  0.86766  0.25095  1.0000
  C   C12       1.0  0.07979  0.98213  0.26440  1.0000
  C   C13       1.0  0.04328  0.98105  0.24310  1.0000
  C   C14       1.0  0.02175  0.95682  0.20416  1.0000
  C   C15       1.0  0.28247  0.73173  0.20708  1.0000
  C   C16       1.0  0.24944  0.72916  0.21956  1.0000
  C   C17       1.0  0.29318  0.75894  0.21779  1.0000
  C   C18       1.0  0.36226  0.64331  0.11719  1.0000
  C   C19       1.0  0.43534  0.52749  0.14892  1.0000
  C   C20       1.0  0.47082  0.52629  0.15918  1.0000
  C   C21       1.0  0.48479  0.54598  0.09709  1.0000
  C   C22       1.0  0.78073  0.22945  0.26692  1.0000
  C   C23       1.0  0.74239  0.22731  0.22130  1.0000
  C   C24       1.0  0.79869  0.25532  0.34828  1.0000
  C   C25       1.0  0.86300  0.14056  0.22028  1.0000
  C   C26       1.0  0.94165  0.02782  0.27536  1.0000
  C   C27       1.0  0.97281  0.02844  0.24806  1.0000
  C   C28       1.0  0.98585  0.05158  0.21037  1.0000
  C   C29       1.0  0.28532  0.27936  0.26548  1.0000
  C   C30       1.0  0.24610  0.27971  0.20625  1.0000
  C   C31       1.0  0.30230  0.25587  0.34635  1.0000
  C   C32       1.0  0.36824  0.36900  0.24711  1.0000
  C   C33       1.0  0.43916  0.48104  0.21817  1.0000
  C   C34       1.0  0.47787  0.48174  0.26792  1.0000
  C   C35       1.0  0.50319  0.46215  0.36803  1.0000
  C   C36       1.0  0.79009  0.77168  0.22960  1.0000
  C   C37       1.0  0.75132  0.77199  0.17676  1.0000
  C   C38       1.0  0.80763  0.74825  0.30796  1.0000
  C   C39       1.0  0.86870  0.86027  0.17479  1.0000
  C   C40       1.0  0.94259  0.97909  0.26978  1.0000
  C   C41       1.0  0.97389  0.97946  0.24258  1.0000
  C   C42       1.0  0.98835  0.95607  0.20019  1.0000
  C   C43       1.0  0.74836  0.72654  0.27311  1.0000
  C   C44       1.0  0.78743  0.72643  0.32967  1.0000
  C   C45       1.0  0.73131  0.75041  0.20130  1.0000
  C   C46       1.0  0.66144  0.63803  0.27288  1.0000
  C   C47       1.0  0.58361  0.52493  0.25565  1.0000
  C   C48       1.0  0.54541  0.52500  0.21486  1.0000
  C   C49       1.0  0.52037  0.54528  0.12308  1.0000
  C   C50       1.0  0.24207  0.23452  0.30328  1.0000
  C   C51       1.0  0.28133  0.23429  0.36519  1.0000
  C   C52       1.0  0.22537  0.25823  0.22773  1.0000
  C   C53       1.0  0.15490  0.14656  0.30655  1.0000
  C   C54       1.0  0.07803  0.03094  0.26316  1.0000
  C   C55       1.0  0.04162  0.03003  0.24366  1.0000
  C   C56       1.0  0.01879  0.05238  0.20947  1.0000
  C   C57       1.0  0.60307  0.50173  0.31174  1.0000
  C   C58       1.0  0.53050  0.50325  0.25826  1.0000
  C   C59       1.0  0.09625  0.00712  0.27986  1.0000
  C   C60       1.0  0.02540  0.00520  0.24563  1.0000
  C   C61       1.0  0.41997  0.50439  0.16863  1.0000
  C   C62       1.0  0.49301  0.50373  0.22794  1.0000
  C   C63       1.0  0.92875  0.00347  0.29250  1.0000
  C   C64       1.0  0.99087  0.00435  0.24705  1.0000
  C   C65       1.0  0.72932  0.27429  0.84585  1.0000
  C   C66       1.0  0.76777  0.27502  0.89226  1.0000
  C   C67       1.0  0.70962  0.24899  0.75653  1.0000
  C   C68       1.0  0.64832  0.36393  0.89622  1.0000
  C   C69       1.0  0.56352  0.47477  0.84386  1.0000
  C   C70       1.0  0.52660  0.47402  0.82146  1.0000
  C   C71       1.0  0.51166  0.45264  0.86594  1.0000
  C   C72       1.0  0.21867  0.76956  0.73410  1.0000
  C   C73       1.0  0.25298  0.77074  0.73261  1.0000
  C   C74       1.0  0.20655  0.74299  0.72818  1.0000
  C   C75       1.0  0.13705  0.86070  0.76231  1.0000
  C   C76       1.0  0.05494  0.97215  0.71937  1.0000
  C   C77       1.0  0.02366  0.97192  0.74648  1.0000
  C   C78       1.0  0.01017  0.94896  0.78339  1.0000
  C   C79       1.0  0.26056  0.72049  0.71148  1.0000
  C   C80       1.0  0.22672  0.71944  0.71831  1.0000
  C   C81       1.0  0.27321  0.74721  0.72260  1.0000
  C   C82       1.0  0.32824  0.62736  0.58294  1.0000
  C   C83       1.0  0.40242  0.51536  0.60706  1.0000
  C   C84       1.0  0.44048  0.51705  0.64483  1.0000
  C   C85       1.0  0.45622  0.53960  0.61544  1.0000
  C   C86       1.0  0.76606  0.22656  0.76957  1.0000
  C   C87       1.0  0.72727  0.22608  0.71743  1.0000
  C   C88       1.0  0.78543  0.25201  0.85379  1.0000
  C   C89       1.0  0.84274  0.13411  0.71595  1.0000
  C   C90       1.0  0.91663  0.01929  0.72762  1.0000
  C   C91       1.0  0.95322  0.02007  0.74868  1.0000
  C   C92       1.0  0.97500  0.04415  0.78683  1.0000
  C   C93       1.0  0.26259  0.26818  0.75968  1.0000
  C   C94       1.0  0.22418  0.27043  0.71130  1.0000
  C   C95       1.0  0.27796  0.24406  0.83364  1.0000
  C   C96       1.0  0.34680  0.35645  0.74311  1.0000
  C   C97       1.0  0.41122  0.46956  0.69373  1.0000
  C   C98       1.0  0.45006  0.47185  0.74712  1.0000
  C   C99       1.0  0.47575  0.45189  0.83512  1.0000
  C   C100      1.0  0.75903  0.76640  0.71563  1.0000
  C   C101      1.0  0.71991  0.76702  0.65766  1.0000
  C   C102      1.0  0.77555  0.74247  0.78831  1.0000
  C   C103      1.0  0.84373  0.85427  0.69267  1.0000
  C   C104      1.0  0.91831  0.97046  0.73128  1.0000
  C   C105      1.0  0.95465  0.97107  0.74996  1.0000
  C   C106      1.0  0.97716  0.94853  0.78383  1.0000
  C   C107      1.0  0.71603  0.72199  0.75642  1.0000
  C   C108      1.0  0.75480  0.72113  0.81039  1.0000
  C   C109      1.0  0.69915  0.74560  0.67896  1.0000
  C   C110      1.0  0.63110  0.63545  0.78807  1.0000
  C   C111      1.0  0.55513  0.52111  0.76515  1.0000
  C   C112      1.0  0.51679  0.51941  0.71968  1.0000
  C   C113      1.0  0.49195  0.54027  0.64420  1.0000
  C   C114      1.0  0.21764  0.22546  0.80321  1.0000
  C   C115      1.0  0.25633  0.22360  0.85733  1.0000
  C   C116      1.0  0.20236  0.24972  0.73241  1.0000
  C   C117      1.0  0.13159  0.13841  0.82039  1.0000
  C   C118      1.0  0.05445  0.02099  0.72571  1.0000
  C   C119      1.0  0.02305  0.02097  0.75199  1.0000
  C   C120      1.0  0.00863  0.04453  0.79270  1.0000
  C   C121      1.0  0.57656  0.49892  0.82342  1.0000
  C   C122      1.0  0.50272  0.49615  0.75295  1.0000
  C   C123      1.0  0.06782  0.99647  0.70151  1.0000
  C   C124      1.0  0.00574  0.99621  0.74696  1.0000
  C   C125      1.0  0.38900  0.49117  0.62520  1.0000
  C   C126      1.0  0.46434  0.49498  0.71379  1.0000
  C   C127      1.0  0.90034  0.99438  0.71539  1.0000
  C   C128      1.0  0.97108  0.99577  0.74773  1.0000
  S   S1        1.0  0.67837  0.21169  0.10994  1.0000
  S   S2        1.0  0.19755  0.71178  0.23764  1.0000
  S   S3        1.0  0.32482  0.79912  0.22339  1.0000
  S   S4        1.0  0.84395  0.29289  0.50137  1.0000
  S   S5        1.0  0.34583  0.22222  0.49647  1.0000
  S   S6        1.0  0.85277  0.71582  0.46541  1.0000
  S   S7        1.0  0.68716  0.78404  0.06085  1.0000
  S   S8        1.0  0.18225  0.29253  0.09227  1.0000
  S   S9        1.0  0.66149  0.21317  0.58809  1.0000
  S   S10       1.0  0.17160  0.70441  0.71826  1.0000
  S   S11       1.0  0.30849  0.78606  0.73803  1.0000
  S   S12       1.0  0.83287  0.28837  0.00789  1.0000
  S   S13       1.0  0.31896  0.20868  0.96809  1.0000
  S   S14       1.0  0.81859  0.70821  0.92749  1.0000
  S   S15       1.0  0.65480  0.77831  0.51948  1.0000
  S   S16       1.0  0.16129  0.28519  0.60083  1.0000
  N   N1        1.0  0.68661  0.24242  0.20098  1.0000
  N   N2        1.0  0.71870  0.20490  0.13340  1.0000
  N   N3        1.0  0.67470  0.38819  0.44106  1.0000
  N   N4        1.0  0.19898  0.74376  0.25223  1.0000
  N   N5        1.0  0.23310  0.70555  0.21419  1.0000
  N   N6        1.0  0.16299  0.89190  0.26368  1.0000
  N   N7        1.0  0.32405  0.76722  0.21382  1.0000
  N   N8        1.0  0.28799  0.80521  0.23578  1.0000
  N   N9        1.0  0.35418  0.61929  0.12989  1.0000
  N   N10       1.0  0.83568  0.26218  0.40904  1.0000
  N   N11       1.0  0.80338  0.29977  0.47463  1.0000
  N   N12       1.0  0.85595  0.11729  0.24914  1.0000
  N   N13       1.0  0.33948  0.25055  0.41440  1.0000
  N   N14       1.0  0.30385  0.21427  0.45175  1.0000
  N   N15       1.0  0.35211  0.38932  0.16095  1.0000
  N   N16       1.0  0.84530  0.74410  0.38138  1.0000
  N   N17       1.0  0.81086  0.70691  0.41887  1.0000
  N   N18       1.0  0.86053  0.88420  0.20448  1.0000
  N   N19       1.0  0.69433  0.75551  0.13987  1.0000
  N   N20       1.0  0.72822  0.79201  0.09416  1.0000
  N   N21       1.0  0.67145  0.61377  0.27649  1.0000
  N   N22       1.0  0.18843  0.26359  0.16505  1.0000
  N   N23       1.0  0.22371  0.30026  0.12950  1.0000
  N   N24       1.0  0.16340  0.12217  0.29381  1.0000
  N   N25       1.0  0.67194  0.24352  0.68850  1.0000
  N   N26       1.0  0.70195  0.20469  0.61992  1.0000
  N   N27       1.0  0.65695  0.38807  0.88755  1.0000
  N   N28       1.0  0.17459  0.73628  0.72749  1.0000
  N   N29       1.0  0.20873  0.69659  0.71245  1.0000
  N   N30       1.0  0.14233  0.88402  0.72735  1.0000
  N   N31       1.0  0.30537  0.75413  0.72607  1.0000
  N   N32       1.0  0.27121  0.79378  0.74355  1.0000
  N   N33       1.0  0.31370  0.60362  0.55983  1.0000
  N   N34       1.0  0.82276  0.25768  0.91535  1.0000
  N   N35       1.0  0.79284  0.29671  0.98221  1.0000
  N   N36       1.0  0.83295  0.11015  0.72220  1.0000
  N   N37       1.0  0.31403  0.23710  0.88953  1.0000
  N   N38       1.0  0.27760  0.20274  0.93773  1.0000
  N   N39       1.0  0.32977  0.37747  0.67225  1.0000
  N   N40       1.0  0.81244  0.73689  0.85089  1.0000
  N   N41       1.0  0.77717  0.70075  0.89179  1.0000
  N   N42       1.0  0.83485  0.87856  0.70548  1.0000
  N   N43       1.0  0.66156  0.75018  0.60475  1.0000
  N   N44       1.0  0.69695  0.78668  0.56699  1.0000
  N   N45       1.0  0.63813  0.61091  0.76655  1.0000
  N   N46       1.0  0.16583  0.25606  0.67063  1.0000
  N   N47       1.0  0.20325  0.29177  0.63985  1.0000
  N   N48       1.0  0.13942  0.11430  0.79242  1.0000
  C  Sn1       1.0  0.71060  0.34087  0.31541  1.0000
  C   C129      1.0  0.68223  0.34089  0.35798  1.0000
  C  Sn2       1.0  0.67537  0.31891  0.42567  1.0000
  C  Sn3       1.0  0.69734  0.29643  0.45146  1.0000
  C   C130      1.0  0.72569  0.29642  0.40894  1.0000
  C  Sn4       1.0  0.73256  0.31839  0.34121  1.0000
  O  Te1       1.0  0.71696  0.36306  0.24793  1.0000
  O  Te2       1.0  0.64685  0.31939  0.46718  1.0000
  O  Te3       1.0  0.69095  0.27423  0.51900  1.0000
  O  Te4       1.0  0.76107  0.31791  0.29973  1.0000
  Mg  Mg1       1.0  0.64894  0.28437  0.55562  1.0000
  Mg  Mg2       1.0  0.75903  0.35293  0.21138  1.0000
  C  Sn5       1.0  0.67142  0.44056  0.55410  1.0000
  C   C131      1.0  0.65753  0.41403  0.49459  1.0000
  C  Sn6       1.0  0.61852  0.40760  0.36812  1.0000
  C  Sn7       1.0  0.59286  0.42811  0.29960  1.0000
  C   C132      1.0  0.60675  0.45462  0.35908  1.0000
  C  Sn8       1.0  0.64576  0.46107  0.48558  1.0000
  O  Te5       1.0  0.71053  0.44653  0.68059  1.0000
  O  Te6       1.0  0.60530  0.38094  0.31071  1.0000
  O  Te7       1.0  0.55372  0.42212  0.17301  1.0000
  O  Te8       1.0  0.65898  0.48772  0.54295  1.0000
  Mg  Mg3       1.0  0.54953  0.38284  0.13642  1.0000
  Mg  Mg4       1.0  0.71474  0.48584  0.71715  1.0000
  C  Sn9       1.0  0.16781  0.81367  0.28804  1.0000
  C   C133      1.0  0.17703  0.84076  0.30726  1.0000
  C  Sn10      1.0  0.20636  0.84932  0.28557  1.0000
  C  Sn11      1.0  0.22690  0.83042  0.24367  1.0000
  C   C134      1.0  0.21767  0.80335  0.22444  1.0000
  C  Sn12      1.0  0.18834  0.79477  0.24614  1.0000
  O  Te9       1.0  0.13837  0.80556  0.31032  1.0000
  O  Te10      1.0  0.21507  0.87651  0.30551  1.0000
  O  Te11      1.0  0.25635  0.83855  0.22140  1.0000
  O  Te12      1.0  0.17963  0.76760  0.22619  1.0000
  Mg  Mg5       1.0  0.25755  0.87774  0.26202  1.0000
  Mg  Mg6       1.0  0.13714  0.76634  0.26955  1.0000
  C  Sn13      1.0  0.12258  0.95165  0.14517  1.0000
  C   C135      1.0  0.09755  0.95476  0.20873  1.0000
  C  Sn14      1.0  0.09779  0.93775  0.33006  1.0000
  C  Sn15      1.0  0.12360  0.91722  0.38921  1.0000
  C   C136      1.0  0.14862  0.91412  0.32569  1.0000
  C  Sn16      1.0  0.14839  0.93112  0.20432  1.0000
  O  Te13      1.0  0.12184  0.96888  0.02394  1.0000
  O  Te14      1.0  0.07249  0.94124  0.39165  1.0000
  O  Te15      1.0  0.12432  0.89999  0.51053  1.0000
  O  Te16      1.0  0.17368  0.92764  0.14277  1.0000
  Mg  Mg7       1.0  0.08435  0.91275  0.55592  1.0000
  Mg  Mg8       1.0  0.26951  0.97291  0.97859  1.0000
  C  Sn17      1.0  0.30383  0.67791  0.24830  1.0000
  C   C137      1.0  0.30875  0.70471  0.23619  1.0000
  C  Sn18      1.0  0.32875  0.71238  0.15533  1.0000
  C  Sn19      1.0  0.34414  0.69287  0.08500  1.0000
  C   C138      1.0  0.33921  0.66609  0.09709  1.0000
  C  Sn20      1.0  0.31922  0.65839  0.17796  1.0000
  O  Te17      1.0  0.28373  0.67069  0.32968  1.0000
  O  Te18      1.0  0.33331  0.73929  0.14486  1.0000
  O  Te19      1.0  0.36425  0.70012  0.00358  1.0000
  O  Te20      1.0  0.31465  0.63150  0.18842  1.0000
  Mg  Mg9       1.0  0.36289  0.73925  0.02150  1.0000
  Mg  Mg10      1.0  0.28506  0.63152  0.31166  1.0000
  C  Sn21      1.0  0.35895  0.56584  0.09031  1.0000
  C   C139      1.0  0.37409  0.59197  0.16242  1.0000
  C  Sn22      1.0  0.41062  0.59931  0.20545  1.0000
  C  Sn23      1.0  0.43245  0.58015  0.17568  1.0000
  C   C140      1.0  0.41731  0.55405  0.10359  1.0000
  C  Sn24      1.0  0.38078  0.54668  0.06054  1.0000
  O  Te21      1.0  0.32237  0.55894  0.04827  1.0000
  O  Te22      1.0  0.42515  0.62555  0.27746  1.0000
  O  Te23      1.0  0.46906  0.58708  0.21779  1.0000
  O  Te24      1.0  0.47390  0.53725  0.98854  1.0000
  Mg  Mg11      1.0  0.47639  0.62529  0.31287  1.0000
  Mg  Mg12      1.0  0.42267  0.53749  0.95300  1.0000
  C  Sn25      1.0  0.85550  0.19548  0.26090  1.0000
  C   C141      1.0  0.84931  0.16880  0.27091  1.0000
  C  Sn26      1.0  0.81541  0.15987  0.25190  1.0000
  C  Sn27      1.0  0.78710  0.17797  0.22214  1.0000
  C   C142      1.0  0.79329  0.20463  0.21211  1.0000
  C  Sn28      1.0  0.82719  0.21358  0.23114  1.0000
  O  Te25      1.0  0.88960  0.20396  0.28028  1.0000
  O  Te26      1.0  0.80987  0.13312  0.26248  1.0000
  O  Te27      1.0  0.75298  0.16946  0.20277  1.0000
  O  Te28      1.0  0.83273  0.24031  0.22054  1.0000
  Mg  Mg13      1.0  0.75870  0.13110  0.22749  1.0000
  Mg  Mg14      1.0  0.88388  0.24235  0.25541  1.0000
  C  Sn29      1.0  0.92403  0.09662  0.30579  1.0000
  C   C143      1.0  0.88470  0.09745  0.22720  1.0000
  C  Sn30      1.0  0.86243  0.07423  0.18801  1.0000
  C  Sn31      1.0  0.87983  0.04966  0.22832  1.0000
  C   C144      1.0  0.91914  0.04884  0.30689  1.0000
  C  Sn32      1.0  0.94144  0.07206  0.34609  1.0000
  O  Te29      1.0  0.94574  0.12009  0.34381  1.0000
  O  Te30      1.0  0.82316  0.07555  0.10938  1.0000
  O  Te31      1.0  0.85809  0.02618  0.19022  1.0000
  O  Te32      1.0  0.98068  0.07074  0.42470  1.0000
  Mg  Mg15      1.0  0.80570  0.03818  0.08307  1.0000
  Mg  Mg16      1.0  0.99817  0.10810  0.45117  1.0000
  C  Sn33      1.0  0.35089  0.31498  0.42812  1.0000
  C   C145      1.0  0.31203  0.30727  0.30971  1.0000
  C  Sn34      1.0  0.28975  0.31755  0.13728  1.0000
  C  Sn35      1.0  0.30666  0.33592  0.08197  1.0000
  C   C146      1.0  0.34549  0.34362  0.20032  1.0000
  C  Sn36      1.0  0.36780  0.33335  0.37281  1.0000
  O  Te33      1.0  0.37262  0.30445  0.59986  1.0000
  O  Te34      1.0  0.25096  0.30955  0.02132  1.0000
  O  Te35      1.0  0.39255  0.36323  0.91007  1.0000
  O  Te36      1.0  0.40656  0.34134  0.48871  1.0000
  Mg  Mg17      1.0  0.34093  0.34622  0.80082  1.0000
  Mg  Mg18      1.0  0.42429  0.32145  0.70919  1.0000
  C  Sn37      1.0  0.41985  0.41193  0.21271  1.0000
  C   C147      1.0  0.38895  0.41041  0.23613  1.0000
  C  Sn38      1.0  0.36936  0.43298  0.23336  1.0000
  C  Sn39      1.0  0.38087  0.45758  0.20651  1.0000
  C   C148      1.0  0.41176  0.45909  0.18307  1.0000
  C  Sn40      1.0  0.43137  0.43653  0.18585  1.0000
  O  Te37      1.0  0.43902  0.38912  0.21596  1.0000
  O  Te38      1.0  0.33856  0.43097  0.25715  1.0000
  O  Te39      1.0  0.36168  0.48040  0.20328  1.0000
  O  Te40      1.0  0.46215  0.43853  0.16206  1.0000
  Mg  Mg19      1.0  0.32148  0.46760  0.24188  1.0000
  Mg  Mg20      1.0  0.47923  0.40191  0.17720  1.0000
  C  Sn41      1.0  0.85345  0.79406  0.23108  1.0000
  C   C149      1.0  0.82365  0.79441  0.26357  1.0000
  C  Sn42      1.0  0.80307  0.81704  0.24136  1.0000
  C  Sn43      1.0  0.81243  0.83980  0.18540  1.0000
  C   C150      1.0  0.84220  0.83943  0.15290  1.0000
  C  Sn44      1.0  0.86281  0.81681  0.17511  1.0000
  O  Te41      1.0  0.87364  0.77121  0.25413  1.0000
  O  Te42      1.0  0.77341  0.81692  0.27472  1.0000
  O  Te43      1.0  0.79221  0.86265  0.16236  1.0000
  O  Te44      1.0  0.89245  0.81692  0.14176  1.0000
  Mg  Mg21      1.0  0.75424  0.85281  0.22434  1.0000
  Mg  Mg22      1.0  0.91162  0.78104  0.19199  1.0000
  C  Sn45      1.0  0.93035  0.91235  0.35572  1.0000
  C   C151      1.0  0.89125  0.90800  0.27986  1.0000
  C  Sn46      1.0  0.86593  0.92708  0.18253  1.0000
  C  Sn47      1.0  0.87999  0.95100  0.16047  1.0000
  C   C152      1.0  0.91907  0.95535  0.23627  1.0000
  C  Sn48      1.0  0.94441  0.93628  0.33365  1.0000
  O  Te45      1.0  0.95514  0.89300  0.45247  1.0000
  O  Te46      1.0  0.82696  0.92228  0.10800  1.0000
  O  Te47      1.0  0.85516  0.97036  0.06363  1.0000
  O  Te48      1.0  0.98335  0.94106  0.40813  1.0000
  Mg  Mg23      1.0  0.91220  0.97144  0.98761  1.0000
  Mg  Mg24      1.0  0.00580  0.90869  0.52846  1.0000
  C  Sn49      1.0  0.69802  0.70455  0.36679  1.0000
  C   C153      1.0  0.72813  0.70417  0.33659  1.0000
  C  Sn50      1.0  0.73501  0.68091  0.25768  1.0000
  C  Sn51      1.0  0.71129  0.65755  0.20780  1.0000
  C   C154      1.0  0.68121  0.65794  0.23796  1.0000
  C  Sn52      1.0  0.67431  0.68119  0.31690  1.0000
  O  Te49      1.0  0.69167  0.72802  0.44586  1.0000
  O  Te50      1.0  0.76528  0.68101  0.22890  1.0000
  O  Te51      1.0  0.71767  0.63407  0.12868  1.0000
  O  Te52      1.0  0.64405  0.68110  0.34566  1.0000
  Mg  Mg25      1.0  0.76244  0.64414  0.11691  1.0000
  Mg  Mg26      1.0  0.64685  0.71796  0.45754  1.0000
  C  Sn53      1.0  0.59403  0.58105  0.25685  1.0000
  C   C155      1.0  0.59653  0.55430  0.20798  1.0000
  C  Sn54      1.0  0.62854  0.54588  0.20670  1.0000
  C  Sn55      1.0  0.65870  0.56460  0.25540  1.0000
  C   C156      1.0  0.65619  0.59133  0.30426  1.0000
  C  Sn56      1.0  0.62418  0.59977  0.30554  1.0000
  O  Te53      1.0  0.56176  0.58902  0.25718  1.0000
  O  Te54      1.0  0.63039  0.51903  0.15729  1.0000
  O  Te55      1.0  0.69098  0.55661  0.25502  1.0000
  O  Te56      1.0  0.62232  0.62660  0.35494  1.0000
  Mg  Mg27      1.0  0.68025  0.51787  0.17776  1.0000
  Mg  Mg28      1.0  0.57249  0.62778  0.33462  1.0000
  C  Sn57      1.0  0.16465  0.20037  0.28264  1.0000
  C   C157      1.0  0.16999  0.17330  0.26335  1.0000
  C  Sn58      1.0  0.20388  0.16483  0.28256  1.0000
  C  Sn59      1.0  0.23306  0.18380  0.32199  1.0000
  C   C158      1.0  0.22771  0.21085  0.34129  1.0000
  C  Sn60      1.0  0.19383  0.21935  0.32207  1.0000
  O  Te57      1.0  0.13054  0.20839  0.26288  1.0000
  O  Te58      1.0  0.20855  0.13766  0.26260  1.0000
  O  Te59      1.0  0.26718  0.17576  0.34174  1.0000
  O  Te60      1.0  0.18915  0.24649  0.34203  1.0000
  Mg  Mg29      1.0  0.26010  0.13656  0.30216  1.0000
  Mg  Mg30      1.0  0.13762  0.24762  0.30261  1.0000
  C  Sn61      1.0  0.13241  0.07203  0.15558  1.0000
  C   C159      1.0  0.13509  0.09767  0.24197  1.0000
  C  Sn62      1.0  0.12132  0.10246  0.36165  1.0000
  C  Sn63      1.0  0.10453  0.08117  0.39580  1.0000
  C   C160      1.0  0.10186  0.05555  0.30947  1.0000
  C  Sn64      1.0  0.11562  0.05074  0.18973  1.0000
  O  Te61      1.0  0.14637  0.06770  0.03646  1.0000
  O  Te62      1.0  0.12431  0.12827  0.44635  1.0000
  O  Te63      1.0  0.09057  0.08552  0.51503  1.0000
  O  Te64      1.0  0.11265  0.02495  0.10509  1.0000
  Mg  Mg31      1.0  0.10116  0.12415  0.59753  1.0000
  Mg  Mg32      1.0  0.24346  0.04582  0.95397  1.0000
  C  Sn65      1.0  0.66623  0.29684  0.83900  1.0000
  C   C161      1.0  0.69870  0.29660  0.82766  1.0000
  C  Sn66      1.0  0.72063  0.32009  0.86892  1.0000
  C  Sn67      1.0  0.70989  0.34432  0.92274  1.0000
  C   C162      1.0  0.67744  0.34456  0.93409  1.0000
  C  Sn68      1.0  0.65549  0.32108  0.89282  1.0000
  O  Te65      1.0  0.64473  0.27313  0.79713  1.0000
  O  Te66      1.0  0.75296  0.31935  0.85653  1.0000
  O  Te67      1.0  0.73141  0.36805  0.96461  1.0000
  O  Te68      1.0  0.62317  0.32182  0.90522  1.0000
  Mg  Mg33      1.0  0.77303  0.35687  0.92756  1.0000
  Mg  Mg34      1.0  0.60309  0.28431  0.83432  1.0000
  C  Sn69      1.0  0.59624  0.40825  0.91456  1.0000
  C   C163      1.0  0.62187  0.40580  0.85434  1.0000
  C  Sn70      1.0  0.63503  0.42812  0.81571  1.0000
  C  Sn71      1.0  0.62233  0.45342  0.83786  1.0000
  C   C164      1.0  0.59673  0.45587  0.89808  1.0000
  C  Sn72      1.0  0.58355  0.43356  0.93670  1.0000
  O  Te69      1.0  0.58347  0.38567  0.95237  1.0000
  O  Te70      1.0  0.66062  0.42517  0.75562  1.0000
  O  Te71      1.0  0.63513  0.47602  0.79998  1.0000
  O  Te72      1.0  0.55797  0.43650  0.99679  1.0000
  Mg  Mg35      1.0  0.66987  0.46185  0.72180  1.0000
  Mg  Mg36      1.0  0.44106  0.38306  0.03074  1.0000
  C  Sn73      1.0  0.16222  0.81014  0.85388  1.0000
  C   C165      1.0  0.16426  0.83545  0.80683  1.0000
  C  Sn74      1.0  0.18148  0.83979  0.70614  1.0000
  C  Sn75      1.0  0.19698  0.81839  0.65122  1.0000
  C   C166      1.0  0.19493  0.79310  0.69823  1.0000
  C  Sn76      1.0  0.17771  0.78874  0.79896  1.0000
  O  Te73      1.0  0.14487  0.80625  0.95460  1.0000
  O  Te74      1.0  0.18319  0.86527  0.66078  1.0000
  O  Te75      1.0  0.21434  0.82230  0.55042  1.0000
  O  Te76      1.0  0.17599  0.76327  0.84428  1.0000
  Mg  Mg37      1.0  0.20968  0.86060  0.52183  1.0000
  Mg  Mg38      1.0  0.14950  0.76792  0.98314  1.0000
  C  Sn77      1.0  0.06294  0.91589  0.68896  1.0000
  C   C167      1.0  0.07525  0.94273  0.74528  1.0000
  C  Sn78      1.0  0.11043  0.95156  0.77802  1.0000
  C  Sn79      1.0  0.13379  0.93319  0.75384  1.0000
  C   C168      1.0  0.12148  0.90638  0.69752  1.0000
  C  Sn80      1.0  0.08630  0.89752  0.66479  1.0000
  O  Te77      1.0  0.02766  0.90750  0.65702  1.0000
  O  Te78      1.0  0.12212  0.97849  0.83429  1.0000
  O  Te79      1.0  0.16909  0.94161  0.78585  1.0000
  O  Te80      1.0  0.07461  0.87062  0.60852  1.0000
  Mg  Mg39      1.0  0.17252  0.98027  0.86052  1.0000
  Mg  Mg40      1.0  0.02421  0.86881  0.58216  1.0000
  C  Sn81      1.0  0.27608  0.66521  0.74020  1.0000
  C   C169      1.0  0.28523  0.69186  0.74416  1.0000
  C  Sn82      1.0  0.30648  0.69872  0.66788  1.0000
  C  Sn83      1.0  0.31882  0.67853  0.58581  1.0000
  C   C170      1.0  0.30966  0.65191  0.58184  1.0000
  C  Sn84      1.0  0.28842  0.64502  0.65813  1.0000
  O  Te81      1.0  0.25481  0.65881  0.81729  1.0000
  O  Te82      1.0  0.31529  0.72549  0.67354  1.0000
  O  Te83      1.0  0.34011  0.68496  0.50870  1.0000
  O  Te84      1.0  0.27960  0.61827  0.65246  1.0000
  Mg  Mg41      1.0  0.34493  0.72422  0.55010  1.0000
  Mg  Mg42      1.0  0.24996  0.61952  0.77576  1.0000
  C  Sn85      1.0  0.38068  0.56777  0.50723  1.0000
  C   C171      1.0  0.38153  0.54393  0.57883  1.0000
  C  Sn86      1.0  0.35358  0.53712  0.61522  1.0000
  C  Sn87      1.0  0.32416  0.55450  0.57920  1.0000
  C   C172      1.0  0.32332  0.57832  0.50762  1.0000
  C  Sn88      1.0  0.35126  0.58515  0.47121  1.0000
  O  Te85      1.0  0.40892  0.57417  0.47189  1.0000
  O  Te86      1.0  0.35503  0.51318  0.68685  1.0000
  O  Te87      1.0  0.29591  0.54808  0.61461  1.0000
  O  Te88      1.0  0.34982  0.60907  0.39960  1.0000
  Mg  Mg43      1.0  0.31011  0.51325  0.71191  1.0000
  Mg  Mg44      1.0  0.39471  0.60901  0.37439  1.0000
  C  Sn89      1.0  0.77744  0.15754  0.68925  1.0000
  C   C173      1.0  0.80918  0.15612  0.67205  1.0000
  C  Sn90      1.0  0.83175  0.17902  0.70766  1.0000
  C  Sn91      1.0  0.82242  0.20387  0.76171  1.0000
  C   C174      1.0  0.79069  0.20528  0.77891  1.0000
  C  Sn92      1.0  0.76810  0.18238  0.74329  1.0000
  O  Te89      1.0  0.75528  0.13438  0.65296  1.0000
  O  Te90      1.0  0.86334  0.17711  0.68948  1.0000
  O  Te91      1.0  0.84461  0.22703  0.79799  1.0000
  O  Te92      1.0  0.73653  0.18429  0.76149  1.0000
  Mg  Mg45      1.0  0.88477  0.21424  0.75420  1.0000
  Mg  Mg46      1.0  0.71510  0.14717  0.69690  1.0000
  C  Sn93      1.0  0.90330  0.07454  0.68989  1.0000
  C   C175      1.0  0.90194  0.04996  0.74808  1.0000
  C  Sn94      1.0  0.87278  0.04309  0.77583  1.0000
  C  Sn95      1.0  0.84437  0.06117  0.74465  1.0000
  C   C176      1.0  0.84573  0.08574  0.68647  1.0000
  C  Sn96      1.0  0.87489  0.09262  0.65872  1.0000
  O  Te93      1.0  0.93272  0.08099  0.66302  1.0000
  O  Te94      1.0  0.87203  0.01840  0.83409  1.0000
  O  Te95      1.0  0.81494  0.05471  0.77159  1.0000
  O  Te96      1.0  0.87564  0.11729  0.60046  1.0000
  Mg  Mg47      1.0  0.82619  0.01872  0.85152  1.0000
  Mg  Mg48      1.0  0.92146  0.11699  0.58289  1.0000
  C  Sn97      1.0  0.27781  0.32940  0.63363  1.0000
  C   C177      1.0  0.31719  0.33560  0.74322  1.0000
  C  Sn98      1.0  0.34222  0.31673  0.84621  1.0000
  C  Sn99      1.0  0.32758  0.29112  0.83946  1.0000
  C   C178      1.0  0.28822  0.28493  0.72990  1.0000
  C  Sn100     1.0  0.26317  0.30379  0.62687  1.0000
  O  Te97      1.0  0.25332  0.34857  0.53180  1.0000
  O  Te98      1.0  0.38148  0.32340  0.95481  1.0000
  O  Te99      1.0  0.35211  0.27195  0.94141  1.0000
  O  Te100     1.0  0.22394  0.29714  0.51831  1.0000
  Mg  Mg49      1.0  0.29565  0.27372  0.06858  1.0000
  Mg  Mg50      1.0  0.20208  0.33002  0.40441  1.0000
  C  Sn101     1.0  0.33802  0.43173  0.68142  1.0000
  C   C179      1.0  0.34132  0.40526  0.62975  1.0000
  C  Sn102     1.0  0.37360  0.39775  0.62785  1.0000
  C  Sn103     1.0  0.40321  0.41708  0.67876  1.0000
  C   C180      1.0  0.39990  0.44353  0.73041  1.0000
  C  Sn104     1.0  0.36763  0.45106  0.73233  1.0000
  O  Te101     1.0  0.30550  0.43879  0.68233  1.0000
  O  Te102     1.0  0.37625  0.37117  0.57563  1.0000
  O  Te103     1.0  0.43575  0.41000  0.67780  1.0000
  O  Te104     1.0  0.36497  0.47762  0.78454  1.0000
  Mg  Mg51      1.0  0.42616  0.37132  0.59638  1.0000
  Mg  Mg52      1.0  0.31508  0.47749  0.76394  1.0000
  C  Sn105     1.0  0.82421  0.78825  0.73194  1.0000
  C   C181      1.0  0.79339  0.78887  0.75675  1.0000
  C  Sn106     1.0  0.77340  0.81182  0.73399  1.0000
  C  Sn107     1.0  0.78441  0.83462  0.68529  1.0000
  C   C182      1.0  0.81520  0.83399  0.66048  1.0000
  C  Sn108     1.0  0.83522  0.81105  0.68325  1.0000
  O  Te105     1.0  0.84379  0.76510  0.75541  1.0000
  O  Te106     1.0  0.74270  0.81196  0.75959  1.0000
  O  Te107     1.0  0.76480  0.85778  0.66184  1.0000
  O  Te108     1.0  0.86590  0.81090  0.65764  1.0000
  Mg  Mg53      1.0  0.72494  0.84822  0.71185  1.0000
  Mg  Mg54      1.0  0.88366  0.77464  0.70525  1.0000
  C  Sn109     1.0  0.87694  0.94167  0.84914  1.0000
  C   C183      1.0  0.90168  0.94382  0.78484  1.0000
  C  Sn110     1.0  0.90074  0.92402  0.65357  1.0000
  C  Sn111     1.0  0.87450  0.90162  0.58504  1.0000
  C   C184      1.0  0.84977  0.89948  0.64931  1.0000
  C  Sn112     1.0  0.85070  0.91927  0.78061  1.0000
  O  Te109     1.0  0.87838  0.96170  0.98039  1.0000
  O  Te110     1.0  0.92576  0.92661  0.59142  1.0000
  O  Te111     1.0  0.87307  0.88158  0.45369  1.0000
  O  Te112     1.0  0.82569  0.91669  0.84272  1.0000
  Mg  Mg55      1.0  0.91291  0.89410  0.41168  1.0000
  Mg  Mg56      1.0  0.73085  0.93241  0.02238  1.0000
  C  Sn113     1.0  0.69540  0.65561  0.79298  1.0000
  C   C185      1.0  0.66556  0.65662  0.82510  1.0000
  C  Sn114     1.0  0.64710  0.68008  0.81331  1.0000
  C  Sn115     1.0  0.65869  0.70301  0.76836  1.0000
  C   C186      1.0  0.68850  0.70199  0.73624  1.0000
  C  Sn116     1.0  0.70699  0.67854  0.74803  1.0000
  O  Te113     1.0  0.71345  0.63194  0.80550  1.0000
  O  Te114     1.0  0.61735  0.68061  0.84607  1.0000
  O  Te115     1.0  0.64061  0.72668  0.75586  1.0000
  O  Te116     1.0  0.73672  0.67800  0.71526  1.0000
  Mg  Mg57      1.0  0.60159  0.71751  0.81246  1.0000
  Mg  Mg58      1.0  0.75248  0.64111  0.74874  1.0000
  C  Sn117     1.0  0.56350  0.57742  0.76896  1.0000
  C   C187      1.0  0.56654  0.55072  0.72140  1.0000
  C  Sn118     1.0  0.59767  0.54285  0.70999  1.0000
  C  Sn119     1.0  0.62638  0.56207  0.74699  1.0000
  C   C188      1.0  0.62334  0.58875  0.79455  1.0000
  C  Sn120     1.0  0.59221  0.59664  0.80597  1.0000
  O  Te117     1.0  0.53214  0.58484  0.77956  1.0000
  O  Te118     1.0  0.60008  0.51604  0.66211  1.0000
  O  Te119     1.0  0.65776  0.55462  0.73635  1.0000
  O  Te120     1.0  0.58980  0.62343  0.85383  1.0000
  Mg  Mg59      1.0  0.64828  0.51573  0.66583  1.0000
  Mg  Mg60      1.0  0.54162  0.62376  0.85025  1.0000
  C  Sn121     1.0  0.19190  0.17141  0.71575  1.0000
  C   C189      1.0  0.18919  0.19857  0.75188  1.0000
  C  Sn122     1.0  0.16975  0.20745  0.83948  1.0000
  C  Sn123     1.0  0.15268  0.18882  0.89218  1.0000
  C   C190      1.0  0.15540  0.16168  0.85609  1.0000
  C  Sn124     1.0  0.17483  0.15277  0.76846  1.0000
  O  Te121     1.0  0.21148  0.16298  0.62804  1.0000
  O  Te122     1.0  0.16741  0.23470  0.87408  1.0000
  O  Te123     1.0  0.13309  0.19728  0.97996  1.0000
  O  Te124     1.0  0.17718  0.12555  0.73389  1.0000
  Mg  Mg61      1.0  0.13771  0.23642  0.99718  1.0000
  Mg  Mg62      1.0  0.20690  0.12380  0.61089  1.0000
  C  Sn125     1.0  0.07315  0.09024  0.74937  1.0000
  C   C191      1.0  0.11197  0.09369  0.81589  1.0000
  C  Sn126     1.0  0.13289  0.07182  0.82080  1.0000
  C  Sn127     1.0  0.11462  0.04595  0.75779  1.0000
  C   C192      1.0  0.07583  0.04251  0.69129  1.0000
  C  Sn128     1.0  0.05489  0.06438  0.68636  1.0000
  O  Te125     1.0  0.05280  0.11240  0.74572  1.0000
  O  Te126     1.0  0.17166  0.07577  0.88797  1.0000
  O  Te127     1.0  0.13501  0.02379  0.76150  1.0000
  O  Te128     1.0  0.01614  0.06044  0.61921  1.0000
  Mg  Mg63      1.0  0.18720  0.03934  0.86520  1.0000
  Mg  Mg64      1.0  0.00057  0.09685  0.64182  1.0000
