data_image0
_chemical_formula_structural       H104C224S16N48C2Sn2C2HTe2HMgC2Sn2C2HTe2HMgC2Sn2C2HTe2HMgC2Sn2C2HTe2HMgC2Sn2C2HTe2HMgC2Sn2C2HTe2HMgC2Sn2C2HTe2HMgC2Sn2C2HTe2HMgC2Sn2C2HTe2HMgC2Sn2C2HTe2HMgC2Sn2C2HTe2HMgC2Sn2C2HTe2HMgC2Sn2C2HTe2HMgC2Sn2C2HTe2HMgC2Sn2C2HTe2HMgC2Sn2C2HTe2HMg
_chemical_formula_sum              "H136 C288 S16 N48 Sn32 Te32 Mg16"
_cell_length_a       41.4087
_cell_length_b       50.7503
_cell_length_c       8.39205
_cell_angle_alpha    95.8963
_cell_angle_beta     122.104
_cell_angle_gamma    89.8641

_symmetry_space_group_name_H-M    'P1'
_space_group_IT_number       1

loop_
  _space_group_symop_operation_xyz
  'x, y, z'

loop_
  _atom_site_type_symbol
  _atom_site_label
  _atom_site_symmetry_multiplicity
  _atom_site_fract_x
  _atom_site_fract_y
  _atom_site_fract_z
  _atom_site_occupancy
  H   H1        1.0  0.64189  0.35946  0.46773  1.0000
  H   H2        1.0  0.70236  0.43711  0.55988  1.0000
  H   H3        1.0  0.59875  0.38799  0.31675  1.0000
  H   H4        1.0  0.66629  0.47702  0.52970  1.0000
  H   H5        1.0  0.56255  0.42753  0.27221  1.0000
  H   H6        1.0  0.55812  0.44731  0.48338  1.0000
  H   H7        1.0  0.22165  0.86971  0.30414  1.0000
  H   H8        1.0  0.25933  0.83216  0.30714  1.0000
  H   H9        1.0  0.16940  0.77794  0.21335  1.0000
  H   H10       1.0  0.13258  0.81559  0.21486  1.0000
  H   H11       1.0  0.12366  0.86264  0.23319  1.0000
  H   H12       1.0  0.16558  0.93711  0.15523  1.0000
  H   H13       1.0  0.11636  0.89578  0.40385  1.0000
  H   H14       1.0  0.12786  0.97570  0.14095  1.0000
  H   H15       1.0  0.08232  0.93484  0.41127  1.0000
  H   H16       1.0  0.03133  0.93857  0.16835  1.0000
  H   H17       1.0  0.38435  0.64799  0.08748  1.0000
  H   H18       1.0  0.32512  0.57175  0.98819  1.0000
  H   H19       1.0  0.43116  0.61888  0.27372  1.0000
  H   H20       1.0  0.35876  0.53177  0.98450  1.0000
  H   H21       1.0  0.46539  0.57882  0.28072  1.0000
  H   H22       1.0  0.46611  0.56130  0.02182  1.0000
  H   H23       1.0  0.88532  0.14434  0.19041  1.0000
  H   H24       1.0  0.96865  0.06873  0.17670  1.0000
  H   H25       1.0  0.39957  0.36892  0.33877  1.0000
  H   H26       1.0  0.49424  0.44778  0.42658  1.0000
  H   H27       1.0  0.81238  0.86196  0.24207  1.0000
  H   H28       1.0  0.77851  0.82397  0.26667  1.0000
  H   H29       1.0  0.84778  0.77018  0.16158  1.0000
  H   H30       1.0  0.88076  0.80813  0.13373  1.0000
  H   H31       1.0  0.89065  0.85598  0.14128  1.0000
  H   H32       1.0  0.83496  0.93064  0.15129  1.0000
  H   H33       1.0  0.93681  0.88887  0.33429  1.0000
  H   H34       1.0  0.86943  0.97209  0.17795  1.0000
  H   H35       1.0  0.97241  0.93071  0.38545  1.0000
  H   H36       1.0  0.97152  0.93743  0.15566  1.0000
  H   H37       1.0  0.63479  0.64338  0.26392  1.0000
  H   H38       1.0  0.67707  0.56467  0.18979  1.0000
  H   H39       1.0  0.61628  0.61568  0.36957  1.0000
  H   H40       1.0  0.63808  0.52577  0.16494  1.0000
  H   H41       1.0  0.57804  0.57729  0.34712  1.0000
  H   H42       1.0  0.52954  0.56009  0.06835  1.0000
  H   H43       1.0  0.12971  0.15205  0.31159  1.0000
  H   H44       1.0  0.16412  0.07425  0.16694  1.0000
  H   H45       1.0  0.11474  0.12183  0.42716  1.0000
  H   H46       1.0  0.12506  0.03498  0.13483  1.0000
  H   H47       1.0  0.07892  0.08257  0.41287  1.0000
  H   H48       1.0  0.02744  0.07026  0.17763  1.0000
  H   H49       1.0  0.63100  0.50103  0.32931  1.0000
  H   H50       1.0  0.12522  0.00819  0.31031  1.0000
  H   H51       1.0  0.39183  0.50475  0.14856  1.0000
  H   H52       1.0  0.90727  0.00369  0.32944  1.0000
  H   H53       1.0  0.71208  0.36516  0.87972  1.0000
  H   H54       1.0  0.74695  0.32663  0.85993  1.0000
  H   H55       1.0  0.66995  0.27482  0.90149  1.0000
  H   H56       1.0  0.63546  0.31325  0.91925  1.0000
  H   H57       1.0  0.62298  0.35860  0.89987  1.0000
  H   H58       1.0  0.52909  0.43642  0.92959  1.0000
  H   H59       1.0  0.19081  0.85857  0.66593  1.0000
  H   H60       1.0  0.22500  0.81975  0.65236  1.0000
  H   H61       1.0  0.16486  0.77329  0.82877  1.0000
  H   H62       1.0  0.13008  0.81186  0.83548  1.0000
  H   H63       1.0  0.11650  0.85688  0.80379  1.0000
  H   H64       1.0  0.02710  0.93166  0.81685  1.0000
  H   H65       1.0  0.27200  0.62886  0.65606  1.0000
  H   H66       1.0  0.24442  0.66840  0.71923  1.0000
  H   H67       1.0  0.32059  0.71807  0.65847  1.0000
  H   H68       1.0  0.34888  0.67864  0.60362  1.0000
  H   H69       1.0  0.35418  0.63091  0.58059  1.0000
  H   H70       1.0  0.30916  0.55848  0.65888  1.0000
  H   H71       1.0  0.35389  0.59699  0.37849  1.0000
  H   H72       1.0  0.34927  0.52104  0.69210  1.0000
  H   H73       1.0  0.39031  0.55874  0.39106  1.0000
  H   H74       1.0  0.43962  0.55676  0.56717  1.0000
  H   H75       1.0  0.86780  0.13865  0.70810  1.0000
  H   H76       1.0  0.82946  0.06479  0.82581  1.0000
  H   H77       1.0  0.87979  0.10536  0.57889  1.0000
  H   H78       1.0  0.86682  0.02609  0.84225  1.0000
  H   H79       1.0  0.91413  0.06646  0.57788  1.0000
  H   H80       1.0  0.96541  0.06257  0.82033  1.0000
  H   H81       1.0  0.27139  0.34293  0.50250  1.0000
  H   H82       1.0  0.23522  0.30507  0.51167  1.0000
  H   H83       1.0  0.33969  0.27890  0.96829  1.0000
  H   H84       1.0  0.37560  0.31636  0.95559  1.0000
  H   H85       1.0  0.37814  0.35606  0.82311  1.0000
  H   H86       1.0  0.46657  0.43566  0.87961  1.0000
  H   H87       1.0  0.86849  0.84911  0.68290  1.0000
  H   H88       1.0  0.96825  0.93076  0.81561  1.0000
  H   H89       1.0  0.60806  0.64141  0.81006  1.0000
  H   H90       1.0  0.50173  0.55728  0.60903  1.0000
  H   H91       1.0  0.18703  0.13566  0.74682  1.0000
  H   H92       1.0  0.22439  0.17324  0.74138  1.0000
  H   H93       1.0  0.15966  0.22828  0.87047  1.0000
  H   H94       1.0  0.12273  0.19074  0.87622  1.0000
  H   H95       1.0  0.10917  0.14316  0.84972  1.0000
  H   H96       1.0  0.16342  0.06743  0.84546  1.0000
  H   H97       1.0  0.06312  0.11105  0.66588  1.0000
  H   H98       1.0  0.12772  0.02679  0.82105  1.0000
  H   H99       1.0  0.02627  0.06990  0.61411  1.0000
  H   H100      1.0  0.02556  0.06312  0.83670  1.0000
  H   H101      1.0  0.60586  0.50090  0.85971  1.0000
  H   H102      1.0  0.08904  0.99620  0.66292  1.0000
  H   H103      1.0  0.35901  0.48859  0.57704  1.0000
  H   H104      1.0  0.87156  0.99337  0.68763  1.0000
  C   C1        1.0  0.74138  0.27524  0.34044  1.0000
  C   C2        1.0  0.77969  0.27741  0.38552  1.0000
  C   C3        1.0  0.72346  0.24937  0.25938  1.0000
  C   C4        1.0  0.66485  0.36408  0.44386  1.0000
  C   C5        1.0  0.65353  0.40950  0.44189  1.0000
  C   C6        1.0  0.67175  0.43517  0.50021  1.0000
  C   C7        1.0  0.61396  0.40742  0.36795  1.0000
  C   C8        1.0  0.65117  0.45756  0.48066  1.0000
  C   C9        1.0  0.59342  0.42991  0.34319  1.0000
  C   C10       1.0  0.61115  0.45572  0.39539  1.0000
  C   C11       1.0  0.58889  0.47958  0.34811  1.0000
  C   C12       1.0  0.55302  0.48101  0.33362  1.0000
  C   C13       1.0  0.53916  0.46187  0.39965  1.0000
  C   C14       1.0  0.21048  0.84948  0.28451  1.0000
  C   C15       1.0  0.23160  0.82823  0.28609  1.0000
  C   C16       1.0  0.21757  0.80150  0.25656  1.0000
  C   C17       1.0  0.18127  0.79783  0.23296  1.0000
  C   C18       1.0  0.16035  0.81924  0.23352  1.0000
  C   C19       1.0  0.17407  0.84552  0.25592  1.0000
  C   C20       1.0  0.23903  0.77899  0.24541  1.0000
  C   C21       1.0  0.27209  0.78158  0.23358  1.0000
  C   C22       1.0  0.22887  0.75186  0.23993  1.0000
  C   C23       1.0  0.15133  0.86766  0.25095  1.0000
  C   C24       1.0  0.14174  0.91307  0.26798  1.0000
  C   C25       1.0  0.14632  0.93668  0.20561  1.0000
  C   C26       1.0  0.11781  0.91292  0.33980  1.0000
  C   C27       1.0  0.12557  0.95840  0.20146  1.0000
  C   C28       1.0  0.09850  0.93518  0.34373  1.0000
  C   C29       1.0  0.10083  0.95835  0.26922  1.0000
  C   C30       1.0  0.07979  0.98213  0.26440  1.0000
  C   C31       1.0  0.04328  0.98105  0.24310  1.0000
  C   C32       1.0  0.02175  0.95682  0.20416  1.0000
  C   C33       1.0  0.28247  0.73173  0.20708  1.0000
  C   C34       1.0  0.24944  0.72916  0.21956  1.0000
  C   C35       1.0  0.29318  0.75894  0.21779  1.0000
  C   C36       1.0  0.36226  0.64331  0.11719  1.0000
  C   C37       1.0  0.37528  0.59824  0.12389  1.0000
  C   C38       1.0  0.35572  0.57310  0.04710  1.0000
  C   C39       1.0  0.41515  0.59989  0.20504  1.0000
  C   C40       1.0  0.37498  0.55077  0.04704  1.0000
  C   C41       1.0  0.43441  0.57721  0.20810  1.0000
  C   C42       1.0  0.41488  0.55197  0.12820  1.0000
  C   C43       1.0  0.43534  0.52749  0.14892  1.0000
  C   C44       1.0  0.47082  0.52629  0.15918  1.0000
  C   C45       1.0  0.48479  0.54598  0.09709  1.0000
  C   C46       1.0  0.78073  0.22945  0.26692  1.0000
  C   C47       1.0  0.74239  0.22731  0.22130  1.0000
  C   C48       1.0  0.79869  0.25532  0.34828  1.0000
  C   C49       1.0  0.86300  0.14056  0.22028  1.0000
  C   C50       1.0  0.94165  0.02782  0.27536  1.0000
  C   C51       1.0  0.97281  0.02844  0.24806  1.0000
  C   C52       1.0  0.98585  0.05158  0.21037  1.0000
  C   C53       1.0  0.28532  0.27936  0.26548  1.0000
  C   C54       1.0  0.24610  0.27971  0.20625  1.0000
  C   C55       1.0  0.30230  0.25587  0.34635  1.0000
  C   C56       1.0  0.36824  0.36900  0.24711  1.0000
  C   C57       1.0  0.43916  0.48104  0.21817  1.0000
  C   C58       1.0  0.47787  0.48174  0.26792  1.0000
  C   C59       1.0  0.50319  0.46215  0.36803  1.0000
  C   C60       1.0  0.81958  0.84170  0.22372  1.0000
  C   C61       1.0  0.80070  0.82040  0.23669  1.0000
  C   C62       1.0  0.81031  0.79399  0.21452  1.0000
  C   C63       1.0  0.84003  0.79015  0.18054  1.0000
  C   C64       1.0  0.85863  0.81161  0.16500  1.0000
  C   C65       1.0  0.84878  0.83772  0.18648  1.0000
  C   C66       1.0  0.79009  0.77168  0.22960  1.0000
  C   C67       1.0  0.75132  0.77199  0.17676  1.0000
  C   C68       1.0  0.80763  0.74825  0.30796  1.0000
  C   C69       1.0  0.86870  0.86027  0.17479  1.0000
  C   C70       1.0  0.88219  0.90638  0.22230  1.0000
  C   C71       1.0  0.86476  0.93077  0.19358  1.0000
  C   C72       1.0  0.92161  0.90687  0.29160  1.0000
  C   C73       1.0  0.88466  0.95401  0.21266  1.0000
  C   C74       1.0  0.94165  0.93050  0.31839  1.0000
  C   C75       1.0  0.92347  0.95453  0.26876  1.0000
  C   C76       1.0  0.94259  0.97909  0.26978  1.0000
  C   C77       1.0  0.97389  0.97946  0.24258  1.0000
  C   C78       1.0  0.98835  0.95607  0.20019  1.0000
  C   C79       1.0  0.74836  0.72654  0.27311  1.0000
  C   C80       1.0  0.78743  0.72643  0.32967  1.0000
  C   C81       1.0  0.73131  0.75041  0.20130  1.0000
  C   C82       1.0  0.66144  0.63803  0.27288  1.0000
  C   C83       1.0  0.64867  0.59311  0.27320  1.0000
  C   C84       1.0  0.65509  0.56713  0.22300  1.0000
  C   C85       1.0  0.62037  0.59620  0.31777  1.0000
  C   C86       1.0  0.63321  0.54540  0.21050  1.0000
  C   C87       1.0  0.59856  0.57436  0.30489  1.0000
  C   C88       1.0  0.60412  0.54827  0.25000  1.0000
  C   C89       1.0  0.58361  0.52493  0.25565  1.0000
  C   C90       1.0  0.54541  0.52500  0.21486  1.0000
  C   C91       1.0  0.52037  0.54528  0.12308  1.0000
  C   C92       1.0  0.24207  0.23452  0.30328  1.0000
  C   C93       1.0  0.28133  0.23429  0.36519  1.0000
  C   C94       1.0  0.22537  0.25823  0.22773  1.0000
  C   C95       1.0  0.15490  0.14656  0.30655  1.0000
  C   C96       1.0  0.14106  0.10116  0.29004  1.0000
  C   C97       1.0  0.14464  0.07590  0.21638  1.0000
  C   C98       1.0  0.11641  0.10302  0.35807  1.0000
  C   C99       1.0  0.12308  0.05385  0.20204  1.0000
  C   C100      1.0  0.09587  0.08067  0.34919  1.0000
  C   C101      1.0  0.09818  0.05541  0.26910  1.0000
  C   C102      1.0  0.07803  0.03094  0.26316  1.0000
  C   C103      1.0  0.04162  0.03003  0.24366  1.0000
  C   C104      1.0  0.01879  0.05238  0.20947  1.0000
  C   C105      1.0  0.60307  0.50173  0.31174  1.0000
  C   C106      1.0  0.53050  0.50325  0.25826  1.0000
  C   C107      1.0  0.09625  0.00712  0.27986  1.0000
  C   C108      1.0  0.02540  0.00520  0.24563  1.0000
  C   C109      1.0  0.41997  0.50439  0.16863  1.0000
  C   C110      1.0  0.49301  0.50373  0.22794  1.0000
  C   C111      1.0  0.92875  0.00347  0.29250  1.0000
  C   C112      1.0  0.99087  0.00435  0.24705  1.0000
  C   C113      1.0  0.70333  0.34526  0.88547  1.0000
  C   C114      1.0  0.72282  0.32360  0.87485  1.0000
  C   C115      1.0  0.71088  0.29737  0.87487  1.0000
  C   C116      1.0  0.67909  0.29435  0.89319  1.0000
  C   C117      1.0  0.65952  0.31608  0.90262  1.0000
  C   C118      1.0  0.67073  0.34189  0.89554  1.0000
  C   C119      1.0  0.72932  0.27429  0.84585  1.0000
  C   C120      1.0  0.76777  0.27502  0.89226  1.0000
  C   C121      1.0  0.70962  0.24899  0.75653  1.0000
  C   C122      1.0  0.64832  0.36393  0.89622  1.0000
  C   C123      1.0  0.56352  0.47477  0.84386  1.0000
  C   C124      1.0  0.52660  0.47402  0.82146  1.0000
  C   C125      1.0  0.51166  0.45264  0.86594  1.0000
  C   C126      1.0  0.18539  0.83983  0.70248  1.0000
  C   C127      1.0  0.20468  0.81783  0.69495  1.0000
  C   C128      1.0  0.19821  0.79295  0.74076  1.0000
  C   C129      1.0  0.17071  0.79169  0.79158  1.0000
  C   C130      1.0  0.15103  0.81363  0.79589  1.0000
  C   C131      1.0  0.15813  0.83822  0.75340  1.0000
  C   C132      1.0  0.21867  0.76956  0.73410  1.0000
  C   C133      1.0  0.25298  0.77074  0.73261  1.0000
  C   C134      1.0  0.20655  0.74299  0.72818  1.0000
  C   C135      1.0  0.13705  0.86070  0.76231  1.0000
  C   C136      1.0  0.05494  0.97215  0.71937  1.0000
  C   C137      1.0  0.02366  0.97192  0.74648  1.0000
  C   C138      1.0  0.01017  0.94896  0.78339  1.0000
  C   C139      1.0  0.28220  0.64855  0.65520  1.0000
  C   C140      1.0  0.26668  0.67089  0.69038  1.0000
  C   C141      1.0  0.27911  0.69691  0.68883  1.0000
  C   C142      1.0  0.30968  0.69877  0.65912  1.0000
  C   C143      1.0  0.32575  0.67632  0.62788  1.0000
  C   C144      1.0  0.31182  0.65067  0.62089  1.0000
  C   C145      1.0  0.26056  0.72049  0.71148  1.0000
  C   C146      1.0  0.22672  0.71944  0.71831  1.0000
  C   C147      1.0  0.27321  0.74721  0.72260  1.0000
  C   C148      1.0  0.32824  0.62736  0.58294  1.0000
  C   C149      1.0  0.33173  0.58164  0.53616  1.0000
  C   C150      1.0  0.32801  0.55854  0.60567  1.0000
  C   C151      1.0  0.35391  0.58077  0.45388  1.0000
  C   C152      1.0  0.35037  0.53742  0.62126  1.0000
  C   C153      1.0  0.37520  0.55900  0.46411  1.0000
  C   C154      1.0  0.37632  0.53737  0.56034  1.0000
  C   C155      1.0  0.40242  0.51536  0.60706  1.0000
  C   C156      1.0  0.44048  0.51705  0.64483  1.0000
  C   C157      1.0  0.45622  0.53960  0.61544  1.0000
  C   C158      1.0  0.76606  0.22656  0.76957  1.0000
  C   C159      1.0  0.72727  0.22608  0.71743  1.0000
  C   C160      1.0  0.78543  0.25201  0.85379  1.0000
  C   C161      1.0  0.84274  0.13411  0.71595  1.0000
  C   C162      1.0  0.85366  0.08869  0.71392  1.0000
  C   C163      1.0  0.84896  0.06514  0.77671  1.0000
  C   C164      1.0  0.87780  0.08840  0.64293  1.0000
  C   C165      1.0  0.86972  0.04328  0.78267  1.0000
  C   C166      1.0  0.89746  0.06614  0.64285  1.0000
  C   C167      1.0  0.89514  0.04310  0.71874  1.0000
  C   C168      1.0  0.91663  0.01929  0.72762  1.0000
  C   C169      1.0  0.95322  0.02007  0.74868  1.0000
  C   C170      1.0  0.97500  0.04415  0.78683  1.0000
  C   C171      1.0  0.28598  0.32886  0.60462  1.0000
  C   C172      1.0  0.26589  0.30752  0.60952  1.0000
  C   C173      1.0  0.28443  0.28915  0.74257  1.0000
  C   C174      1.0  0.32464  0.29253  0.86409  1.0000
  C   C175      1.0  0.34478  0.31376  0.85716  1.0000
  C   C176      1.0  0.32573  0.33273  0.73201  1.0000
  C   C177      1.0  0.26259  0.26818  0.75968  1.0000
  C   C178      1.0  0.22418  0.27043  0.71130  1.0000
  C   C179      1.0  0.27796  0.24406  0.83364  1.0000
  C   C180      1.0  0.34680  0.35645  0.74311  1.0000
  C   C181      1.0  0.41122  0.46956  0.69373  1.0000
  C   C182      1.0  0.45006  0.47185  0.74712  1.0000
  C   C183      1.0  0.47575  0.45189  0.83512  1.0000
  C   C184      1.0  0.75903  0.76640  0.71563  1.0000
  C   C185      1.0  0.71991  0.76702  0.65766  1.0000
  C   C186      1.0  0.77555  0.74247  0.78831  1.0000
  C   C187      1.0  0.84373  0.85427  0.69267  1.0000
  C   C188      1.0  0.91831  0.97046  0.73128  1.0000
  C   C189      1.0  0.95465  0.97107  0.74996  1.0000
  C   C190      1.0  0.97716  0.94853  0.78383  1.0000
  C   C191      1.0  0.71603  0.72199  0.75642  1.0000
  C   C192      1.0  0.75480  0.72113  0.81039  1.0000
  C   C193      1.0  0.69915  0.74560  0.67896  1.0000
  C   C194      1.0  0.63110  0.63545  0.78807  1.0000
  C   C195      1.0  0.55513  0.52111  0.76515  1.0000
  C   C196      1.0  0.51679  0.51941  0.71968  1.0000
  C   C197      1.0  0.49195  0.54027  0.64420  1.0000
  C   C198      1.0  0.18181  0.15606  0.77625  1.0000
  C   C199      1.0  0.20265  0.17708  0.77412  1.0000
  C   C200      1.0  0.19539  0.20369  0.80915  1.0000
  C   C201      1.0  0.16569  0.20812  0.84252  1.0000
  C   C202      1.0  0.14496  0.18694  0.84604  1.0000
  C   C203      1.0  0.15290  0.16060  0.81487  1.0000
  C   C204      1.0  0.21764  0.22546  0.80321  1.0000
  C   C205      1.0  0.25633  0.22360  0.85733  1.0000
  C   C206      1.0  0.20236  0.24972  0.73241  1.0000
  C   C207      1.0  0.13159  0.13841  0.82039  1.0000
  C   C208      1.0  0.11699  0.09255  0.77395  1.0000
  C   C209      1.0  0.13366  0.06789  0.80325  1.0000
  C   C210      1.0  0.07772  0.09281  0.70695  1.0000
  C   C211      1.0  0.11310  0.04509  0.78530  1.0000
  C   C212      1.0  0.05696  0.06958  0.68022  1.0000
  C   C213      1.0  0.07430  0.04526  0.72856  1.0000
  C   C214      1.0  0.05445  0.02099  0.72571  1.0000
  C   C215      1.0  0.02305  0.02097  0.75199  1.0000
  C   C216      1.0  0.00863  0.04453  0.79270  1.0000
  C   C217      1.0  0.57656  0.49892  0.82342  1.0000
  C   C218      1.0  0.50272  0.49615  0.75295  1.0000
  C   C219      1.0  0.06782  0.99647  0.70151  1.0000
  C   C220      1.0  0.00574  0.99621  0.74696  1.0000
  C   C221      1.0  0.38900  0.49117  0.62520  1.0000
  C   C222      1.0  0.46434  0.49498  0.71379  1.0000
  C   C223      1.0  0.90034  0.99438  0.71539  1.0000
  C   C224      1.0  0.97108  0.99577  0.74773  1.0000
  S   S1        1.0  0.67837  0.21169  0.10994  1.0000
  S   S2        1.0  0.19755  0.71178  0.23764  1.0000
  S   S3        1.0  0.32482  0.79912  0.22339  1.0000
  S   S4        1.0  0.84395  0.29289  0.50137  1.0000
  S   S5        1.0  0.34583  0.22222  0.49647  1.0000
  S   S6        1.0  0.85277  0.71582  0.46541  1.0000
  S   S7        1.0  0.68716  0.78404  0.06085  1.0000
  S   S8        1.0  0.18225  0.29253  0.09227  1.0000
  S   S9        1.0  0.66149  0.21317  0.58809  1.0000
  S   S10       1.0  0.17160  0.70441  0.71826  1.0000
  S   S11       1.0  0.30849  0.78606  0.73803  1.0000
  S   S12       1.0  0.83287  0.28837  0.00789  1.0000
  S   S13       1.0  0.31896  0.20868  0.96809  1.0000
  S   S14       1.0  0.81859  0.70821  0.92749  1.0000
  S   S15       1.0  0.65480  0.77831  0.51948  1.0000
  S   S16       1.0  0.16129  0.28519  0.60083  1.0000
  N   N1        1.0  0.68661  0.24242  0.20098  1.0000
  N   N2        1.0  0.71870  0.20490  0.13340  1.0000
  N   N3        1.0  0.67470  0.38819  0.44106  1.0000
  N   N4        1.0  0.19898  0.74376  0.25223  1.0000
  N   N5        1.0  0.23310  0.70555  0.21419  1.0000
  N   N6        1.0  0.16299  0.89190  0.26368  1.0000
  N   N7        1.0  0.32405  0.76722  0.21382  1.0000
  N   N8        1.0  0.28799  0.80521  0.23578  1.0000
  N   N9        1.0  0.35418  0.61929  0.12989  1.0000
  N   N10       1.0  0.83568  0.26218  0.40904  1.0000
  N   N11       1.0  0.80338  0.29977  0.47463  1.0000
  N   N12       1.0  0.85595  0.11729  0.24914  1.0000
  N   N13       1.0  0.33948  0.25055  0.41440  1.0000
  N   N14       1.0  0.30385  0.21427  0.45175  1.0000
  N   N15       1.0  0.35211  0.38932  0.16095  1.0000
  N   N16       1.0  0.84530  0.74410  0.38138  1.0000
  N   N17       1.0  0.81086  0.70691  0.41887  1.0000
  N   N18       1.0  0.86053  0.88420  0.20448  1.0000
  N   N19       1.0  0.69433  0.75551  0.13987  1.0000
  N   N20       1.0  0.72822  0.79201  0.09416  1.0000
  N   N21       1.0  0.67145  0.61377  0.27649  1.0000
  N   N22       1.0  0.18843  0.26359  0.16505  1.0000
  N   N23       1.0  0.22371  0.30026  0.12950  1.0000
  N   N24       1.0  0.16340  0.12217  0.29381  1.0000
  N   N25       1.0  0.67194  0.24352  0.68850  1.0000
  N   N26       1.0  0.70195  0.20469  0.61992  1.0000
  N   N27       1.0  0.65695  0.38807  0.88755  1.0000
  N   N28       1.0  0.17459  0.73628  0.72749  1.0000
  N   N29       1.0  0.20873  0.69659  0.71245  1.0000
  N   N30       1.0  0.14233  0.88402  0.72735  1.0000
  N   N31       1.0  0.30537  0.75413  0.72607  1.0000
  N   N32       1.0  0.27121  0.79378  0.74355  1.0000
  N   N33       1.0  0.31370  0.60362  0.55983  1.0000
  N   N34       1.0  0.82276  0.25768  0.91535  1.0000
  N   N35       1.0  0.79284  0.29671  0.98221  1.0000
  N   N36       1.0  0.83295  0.11015  0.72220  1.0000
  N   N37       1.0  0.31403  0.23710  0.88953  1.0000
  N   N38       1.0  0.27760  0.20274  0.93773  1.0000
  N   N39       1.0  0.32977  0.37747  0.67225  1.0000
  N   N40       1.0  0.81244  0.73689  0.85089  1.0000
  N   N41       1.0  0.77717  0.70075  0.89179  1.0000
  N   N42       1.0  0.83485  0.87856  0.70548  1.0000
  N   N43       1.0  0.66156  0.75018  0.60475  1.0000
  N   N44       1.0  0.69695  0.78668  0.56699  1.0000
  N   N45       1.0  0.63813  0.61091  0.76655  1.0000
  N   N46       1.0  0.16583  0.25606  0.67063  1.0000
  N   N47       1.0  0.20325  0.29177  0.63985  1.0000
  N   N48       1.0  0.13942  0.11430  0.79242  1.0000
  C   C225      1.0  0.81789  0.78693  0.66797  1.0000
  C   C226      1.0  0.78971  0.78715  0.71187  1.0000
  C  Sn1       1.0  0.77587  0.81113  0.74071  1.0000
  C  Sn2       1.0  0.79055  0.83531  0.72516  1.0000
  C   C227      1.0  0.81871  0.83488  0.68104  1.0000
  C   C228      1.0  0.83237  0.81077  0.65252  1.0000
  H   H105      1.0  0.82844  0.76828  0.64580  1.0000
  O  Te1       1.0  0.74773  0.81099  0.78454  1.0000
  O  Te2       1.0  0.77721  0.85956  0.75320  1.0000
  H   H106      1.0  0.85417  0.81061  0.61841  1.0000
  Mg  Mg1       1.0  0.73869  0.84910  0.81014  1.0000
  C   C229      1.0  0.60438  0.41125  0.97648  1.0000
  C   C230      1.0  0.62710  0.40719  0.89999  1.0000
  C  Sn3       1.0  0.63279  0.42711  0.81262  1.0000
  C  Sn4       1.0  0.61538  0.45153  0.80189  1.0000
  C   C231      1.0  0.59273  0.45540  0.87896  1.0000
  C   C232      1.0  0.58722  0.43533  0.96602  1.0000
  H   H107      1.0  0.49247  0.37895  0.04393  1.0000
  O  Te3       1.0  0.65555  0.42272  0.73688  1.0000
  O  Te4       1.0  0.62060  0.47178  0.71542  1.0000
  H   H108      1.0  0.46199  0.42171  0.02533  1.0000
  Mg  Mg2       1.0  0.65412  0.45634  0.63309  1.0000
  C   C233      1.0  0.88582  0.90162  0.61601  1.0000
  C   C234      1.0  0.86439  0.89836  0.69756  1.0000
  C  Sn5       1.0  0.85810  0.92022  0.79114  1.0000
  C  Sn6       1.0  0.87358  0.94578  0.80302  1.0000
  C   C235      1.0  0.89496  0.94883  0.72085  1.0000
  C   C236      1.0  0.90109  0.92682  0.62760  1.0000
  H   H109      1.0  0.89055  0.88460  0.54376  1.0000
  O  Te5       1.0  0.83663  0.91662  0.87188  1.0000
  O  Te6       1.0  0.86771  0.96796  0.89565  1.0000
  H   H110      1.0  0.91767  0.92935  0.56437  1.0000
  Mg  Mg3       1.0  0.83650  0.95294  0.98323  1.0000
  C   C237      1.0  0.18171  0.21374  0.33816  1.0000
  C   C238      1.0  0.21401  0.21370  0.32539  1.0000
  C  Sn7       1.0  0.22781  0.18974  0.29588  1.0000
  C  Sn8       1.0  0.20884  0.16539  0.27884  1.0000
  C   C239      1.0  0.17653  0.16563  0.29169  1.0000
  C   C240      1.0  0.16298  0.18973  0.32130  1.0000
  H   H111      1.0  0.17121  0.23238  0.36097  1.0000
  O  Te7       1.0  0.26012  0.19006  0.28353  1.0000
  O  Te8       1.0  0.22201  0.14115  0.24923  1.0000
  H   H112      1.0  0.13796  0.18975  0.33107  1.0000
  Mg  Mg4       1.0  0.26715  0.15189  0.24237  1.0000
  C   C241      1.0  0.07054  0.90347  0.63806  1.0000
  C   C242      1.0  0.10909  0.90301  0.69764  1.0000
  C  Sn9       1.0  0.13265  0.92636  0.77684  1.0000
  C  Sn10      1.0  0.11724  0.95059  0.79662  1.0000
  C   C243      1.0  0.07864  0.95084  0.73669  1.0000
  C   C244      1.0  0.05532  0.92736  0.65757  1.0000
  H   H113      1.0  0.05250  0.88531  0.57694  1.0000
  O  Te9       1.0  0.17110  0.92555  0.83557  1.0000
  O  Te10      1.0  0.14015  0.97422  0.87536  1.0000
  H   H114      1.0  0.02548  0.92772  0.61156  1.0000
  Mg  Mg5       1.0  0.19080  0.96297  0.93425  1.0000
  C   C245      1.0  0.62058  0.55706  0.70585  1.0000
  C   C246      1.0  0.61837  0.58388  0.75440  1.0000
  C  Sn11      1.0  0.59382  0.59155  0.81509  1.0000
  C  Sn12      1.0  0.57110  0.57195  0.82731  1.0000
  C   C247      1.0  0.57354  0.54516  0.77855  1.0000
  C   C248      1.0  0.59819  0.53771  0.71794  1.0000
  H   H115      1.0  0.63967  0.55129  0.65906  1.0000
  O  Te11      1.0  0.59196  0.61844  0.86298  1.0000
  O  Te12      1.0  0.54634  0.57906  0.88760  1.0000
  H   H116      1.0  0.59991  0.51694  0.68048  1.0000
  Mg  Mg6       1.0  0.55387  0.61824  0.93727  1.0000
  C   C249      1.0  0.67457  0.30830  0.42120  1.0000
  C   C250      1.0  0.68209  0.33540  0.42939  1.0000
  C  Sn13      1.0  0.70950  0.34400  0.39416  1.0000
  C  Sn14      1.0  0.72970  0.32508  0.34989  1.0000
  C   C251      1.0  0.72194  0.29801  0.34191  1.0000
  C   C252      1.0  0.69446  0.28963  0.37747  1.0000
  H   H117      1.0  0.65329  0.30181  0.44860  1.0000
  O  Te13      1.0  0.71668  0.37115  0.40300  1.0000
  O  Te14      1.0  0.75723  0.33313  0.31399  1.0000
  H   H118      1.0  0.68863  0.26864  0.37100  1.0000
  Mg  Mg7       1.0  0.75687  0.37233  0.34302  1.0000
  C   C253      1.0  0.83910  0.20753  0.21267  1.0000
  C   C254      1.0  0.80721  0.20805  0.22886  1.0000
  C  Sn15      1.0  0.79266  0.18485  0.25114  1.0000
  C  Sn16      1.0  0.81044  0.16071  0.25732  1.0000
  C   C255      1.0  0.84235  0.16041  0.24113  1.0000
  C   C256      1.0  0.85666  0.18373  0.21883  1.0000
  H   H119      1.0  0.85019  0.22558  0.19552  1.0000
  O  Te15      1.0  0.76077  0.18572  0.26703  1.0000
  O  Te16      1.0  0.79651  0.13724  0.27953  1.0000
  H   H120      1.0  0.88137  0.18333  0.20642  1.0000
  Mg  Mg8       1.0  0.75235  0.14851  0.29508  1.0000
  C   C257      1.0  0.72261  0.65861  0.24364  1.0000
  C   C258      1.0  0.69368  0.65847  0.28225  1.0000
  C  Sn17      1.0  0.68006  0.68233  0.31485  1.0000
  C  Sn18      1.0  0.69573  0.70675  0.30854  1.0000
  C   C259      1.0  0.72464  0.70667  0.26966  1.0000
  C   C260      1.0  0.73807  0.68268  0.23731  1.0000
  H   H121      1.0  0.73299  0.64005  0.21850  1.0000
  O  Te17      1.0  0.65115  0.68183  0.35329  1.0000
  O  Te18      1.0  0.68263  0.73088  0.34051  1.0000
  H   H122      1.0  0.76045  0.68280  0.20730  1.0000
  Mg  Mg9       1.0  0.64281  0.71991  0.38733  1.0000
  C   C261      1.0  0.68867  0.65467  0.72890  1.0000
  C   C262      1.0  0.66153  0.65515  0.77974  1.0000
  C  Sn19      1.0  0.64952  0.67932  0.81940  1.0000
  C  Sn20      1.0  0.66502  0.70343  0.80777  1.0000
  C   C263      1.0  0.69214  0.70274  0.75665  1.0000
  C   C264      1.0  0.70396  0.67843  0.71732  1.0000
  H   H123      1.0  0.69779  0.63586  0.69837  1.0000
  O  Te19      1.0  0.62240  0.67944  0.87005  1.0000
  O  Te20      1.0  0.65353  0.72787  0.84658  1.0000
  H   H124      1.0  0.72495  0.67807  0.67784  1.0000
  Mg  Mg10      1.0  0.61582  0.71774  0.90967  1.0000
  C   C265      1.0  0.83262  0.18961  0.70770  1.0000
  C   C266      1.0  0.82695  0.16342  0.72962  1.0000
  C  Sn21      1.0  0.79734  0.15637  0.75361  1.0000
  C  Sn22      1.0  0.77298  0.17594  0.75559  1.0000
  C   C267      1.0  0.77888  0.20208  0.73342  1.0000
  C   C268      1.0  0.80861  0.20892  0.70957  1.0000
  H   H125      1.0  0.85561  0.19490  0.68914  1.0000
  O  Te21      1.0  0.79208  0.13011  0.77538  1.0000
  O  Te22      1.0  0.74316  0.16943  0.77927  1.0000
  H   H126      1.0  0.81297  0.22920  0.69248  1.0000
  Mg  Mg11      1.0  0.74751  0.13099  0.80343  1.0000
  C   C269      1.0  0.93909  0.08446  0.36344  1.0000
  C   C270      1.0  0.92689  0.05758  0.31467  1.0000
  C  Sn23      1.0  0.88820  0.04988  0.22711  1.0000
  C  Sn24      1.0  0.86130  0.06950  0.18778  1.0000
  C   C271      1.0  0.87379  0.09634  0.23701  1.0000
  C   C272      1.0  0.91257  0.10383  0.32464  1.0000
  H   H127      1.0  0.96910  0.09026  0.43115  1.0000
  O  Te23      1.0  0.87650  0.02293  0.17939  1.0000
  O  Te24      1.0  0.82246  0.06235  0.10032  1.0000
  H   H128      1.0  0.92201  0.12464  0.36227  1.0000
  Mg  Mg12      1.0  0.82050  0.02310  0.06238  1.0000
  C   C273      1.0  0.30568  0.66406  0.18611  1.0000
  C   C274      1.0  0.33302  0.66353  0.13657  1.0000
  C  Sn25      1.0  0.34722  0.68711  0.11707  1.0000
  C  Sn26      1.0  0.33376  0.71166  0.14788  1.0000
  C   C275      1.0  0.30643  0.71199  0.19752  1.0000
  C   C276      1.0  0.29240  0.68826  0.21660  1.0000
  H   H129      1.0  0.29483  0.64571  0.20098  1.0000
  O  Te25      1.0  0.37452  0.68622  0.06742  1.0000
  O  Te26      1.0  0.34749  0.73553  0.12941  1.0000
  H   H130      1.0  0.27125  0.68868  0.25508  1.0000
  Mg  Mg13      1.0  0.38452  0.72406  0.05931  1.0000
  C   C277      1.0  0.42639  0.42392  0.16840  1.0000
  C   C278      1.0  0.41974  0.45065  0.19087  1.0000
  C  Sn27      1.0  0.39058  0.45780  0.22062  1.0000
  C  Sn28      1.0  0.36771  0.43778  0.22801  1.0000
  C   C279      1.0  0.37461  0.41109  0.20550  1.0000
  C   C280      1.0  0.40386  0.40415  0.17574  1.0000
  H   H131      1.0  0.44903  0.41854  0.14547  1.0000
  O  Te27      1.0  0.38431  0.48461  0.24272  1.0000
  O  Te28      1.0  0.33839  0.44438  0.25764  1.0000
  H   H132      1.0  0.40902  0.38346  0.15847  1.0000
  Mg  Mg14      1.0  0.34093  0.48364  0.27980  1.0000
  C   C281      1.0  0.39942  0.41229  0.64587  1.0000
  C   C282      1.0  0.39298  0.43899  0.67141  1.0000
  C  Sn29      1.0  0.36608  0.44608  0.71779  1.0000
  C  Sn30      1.0  0.34529  0.42602  0.73895  1.0000
  C   C283      1.0  0.35195  0.39937  0.71323  1.0000
  C   C284      1.0  0.37893  0.39249  0.66679  1.0000
  H   H133      1.0  0.42030  0.40697  0.61004  1.0000
  O  Te29      1.0  0.36000  0.47286  0.74273  1.0000
  O  Te30      1.0  0.31824  0.43256  0.78532  1.0000
  H   H134      1.0  0.38392  0.37181  0.64715  1.0000
  Mg  Mg15      1.0  0.32012  0.47180  0.80487  1.0000
  C   C285      1.0  0.29816  0.33685  0.08819  1.0000
  C   C286      1.0  0.33623  0.34613  0.21376  1.0000
  C  Sn31      1.0  0.36101  0.33173  0.36131  1.0000
  C  Sn32      1.0  0.34735  0.30760  0.38316  1.0000
  C   C287      1.0  0.30922  0.29847  0.25669  1.0000
  C   C288      1.0  0.28467  0.31305  0.10958  1.0000
  H   H135      1.0  0.38683  0.36489  0.97429  1.0000
  O  Te31      1.0  0.39895  0.34129  0.48556  1.0000
  O  Te32      1.0  0.37150  0.29281  0.52934  1.0000
  H   H136      1.0  0.25520  0.30585  0.01230  1.0000
  Mg  Mg16      1.0  0.42083  0.31405  0.66254  1.0000
