data_image0
_chemical_formula_structural       H104C148N16O8C2Sn2C2HTe2HMgC2Sn2C2HTe2HMgC2Sn2C2HTe2HMgC2Sn2C2HTe2HMgC2Sn2C2HTe2HMgC2Sn2C2HTe2HMgC2Sn2C2HTe2HMgC2Sn2C2HTe2HMgC2Sn2C2HTe2HMgC2Sn2C2HTe2HMgC2Sn2C2HTe2HMgC2Sn2C2HTe2HMgC2Sn2C2HTe2HMgC2Sn2C2HTe2HMgC2Sn2C2HTe2HMgC2Sn2C2HTe2HMg
_chemical_formula_sum              "H136 C212 N16 O8 Sn32 Te32 Mg16"
_cell_length_a       28.3122
_cell_length_b       7.85822
_cell_length_c       24.7507
_cell_angle_alpha    90.0289
_cell_angle_beta     98.3831
_cell_angle_gamma    90.019

_symmetry_space_group_name_H-M    'P1'
_space_group_IT_number       1

loop_
  _space_group_symop_operation_xyz
  'x, y, z'

loop_
  _atom_site_type_symbol
  _atom_site_label
  _atom_site_symmetry_multiplicity
  _atom_site_fract_x
  _atom_site_fract_y
  _atom_site_fract_z
  _atom_site_occupancy
  H   H1        1.0  0.10008  0.87883  0.24536  1.0000
  H   H2        1.0  0.40076  0.37381  0.25544  1.0000
  H   H3        1.0  0.59728  0.37949  0.23810  1.0000
  H   H4        1.0  0.59923  0.62375  0.74348  1.0000
  H   H5        1.0  0.40249  0.62446  0.75882  1.0000
  H   H6        1.0  0.43760  0.63192  0.28120  1.0000
  H   H7        1.0  0.06357  0.13712  0.21968  1.0000
  H   H8        1.0  0.93856  0.13619  0.28257  1.0000
  H   H9        1.0  0.56256  0.36609  0.71892  1.0000
  H   H10       1.0  0.93882  0.85957  0.78083  1.0000
  H   H11       1.0  0.06230  0.86249  0.71692  1.0000
  H   H12       1.0  0.96442  0.65296  0.18483  1.0000
  H   H13       1.0  0.53647  0.15010  0.31624  1.0000
  H   H14       1.0  0.46169  0.14496  0.18285  1.0000
  H   H15       1.0  0.46345  0.85035  0.68465  1.0000
  H   H16       1.0  0.53842  0.84764  0.81973  1.0000
  H   H17       1.0  0.14080  0.64170  0.20560  1.0000
  H   H18       1.0  0.36017  0.14074  0.29741  1.0000
  H   H19       1.0  0.63774  0.14550  0.19642  1.0000
  H   H20       1.0  0.63965  0.85873  0.70207  1.0000
  H   H21       1.0  0.36212  0.86083  0.79934  1.0000
  H   H22       1.0  0.48740  0.45340  0.13530  1.0000
  H   H23       1.0  0.01200  0.95974  0.36479  1.0000
  H   H24       1.0  0.99002  0.95303  0.13793  1.0000
  H   H25       1.0  0.51256  0.54435  0.86489  1.0000
  H   H26       1.0  0.98887  0.04005  0.63516  1.0000
  H   H27       1.0  0.01270  0.04713  0.86243  1.0000
  H   H28       1.0  0.43798  0.67416  0.08174  1.0000
  H   H29       1.0  0.06153  0.17904  0.41889  1.0000
  H   H30       1.0  0.93980  0.16842  0.08291  1.0000
  H   H31       1.0  0.56117  0.32149  0.91817  1.0000
  H   H32       1.0  0.93947  0.81927  0.58136  1.0000
  H   H33       1.0  0.06319  0.83105  0.91681  1.0000
  H   H34       1.0  0.00454  0.41772  0.14514  1.0000
  H   H35       1.0  0.49666  0.91922  0.35820  1.0000
  H   H36       1.0  0.50156  0.91204  0.14179  1.0000
  H   H37       1.0  0.50316  0.08305  0.64335  1.0000
  H   H38       1.0  0.49865  0.08136  0.86044  1.0000
  H   H39       1.0  0.38632  0.83982  0.22842  1.0000
  H   H40       1.0  0.11411  0.34662  0.27320  1.0000
  H   H41       1.0  0.88740  0.34162  0.22812  1.0000
  H   H42       1.0  0.61282  0.15482  0.77167  1.0000
  H   H43       1.0  0.88845  0.64929  0.72768  1.0000
  H   H44       1.0  0.11365  0.65619  0.77063  1.0000
  H   H45       1.0  0.31860  0.59414  0.13326  1.0000
  H   H46       1.0  0.18001  0.10126  0.37161  1.0000
  H   H47       1.0  0.67974  0.39990  0.86725  1.0000
  H   H48       1.0  0.82109  0.89770  0.63034  1.0000
  H   H49       1.0  0.87844  0.88123  0.51391  1.0000
  H   H50       1.0  0.77313  0.98362  0.37439  1.0000
  H   H51       1.0  0.83015  0.17999  0.33771  1.0000
  H   H52       1.0  0.93552  0.07598  0.47721  1.0000
  H   H53       1.0  0.35943  0.34621  0.18071  1.0000
  H   H54       1.0  0.13864  0.85530  0.32339  1.0000
  H   H55       1.0  0.63930  0.64751  0.81977  1.0000
  H   H56       1.0  0.86329  0.14343  0.67783  1.0000
  H   H57       1.0  0.32648  0.04446  0.03493  1.0000
  H   H58       1.0  0.17483  0.54492  0.46659  1.0000
  H   H59       1.0  0.67272  0.95028  0.96535  1.0000
  H   H60       1.0  0.82603  0.45313  0.53467  1.0000
  H   H61       1.0  0.28772  0.29615  0.98658  1.0000
  H   H62       1.0  0.21389  0.79522  0.51602  1.0000
  H   H63       1.0  0.71147  0.69851  0.01369  1.0000
  H   H64       1.0  0.78583  0.20351  0.48613  1.0000
  H   H65       1.0  0.05164  0.30515  0.08911  1.0000
  H   H66       1.0  0.95114  0.29815  0.41374  1.0000
  H   H67       1.0  0.54811  0.79635  0.08452  1.0000
  H   H68       1.0  0.44949  0.80683  0.41507  1.0000
  H   H69       1.0  0.94944  0.69683  0.91155  1.0000
  H   H70       1.0  0.04722  0.70668  0.58626  1.0000
  H   H71       1.0  0.45170  0.20570  0.91404  1.0000
  H   H72       1.0  0.55004  0.19501  0.58608  1.0000
  H   H73       1.0  0.38673  0.06849  0.18329  1.0000
  H   H74       1.0  0.61120  0.07232  0.31257  1.0000
  H   H75       1.0  0.88970  0.56851  0.18185  1.0000
  H   H76       1.0  0.11244  0.57617  0.31923  1.0000
  H   H77       1.0  0.61232  0.92590  0.81690  1.0000
  H   H78       1.0  0.39001  0.93294  0.68481  1.0000
  H   H79       1.0  0.11199  0.42883  0.81698  1.0000
  H   H80       1.0  0.88896  0.42257  0.68178  1.0000
  H   H81       1.0  0.31626  0.00984  0.36392  1.0000
  H   H82       1.0  0.69163  0.97664  0.14293  1.0000
  H   H83       1.0  0.81180  0.49763  0.35648  1.0000
  H   H84       1.0  0.18591  0.49408  0.13859  1.0000
  H   H85       1.0  0.68470  0.99215  0.63751  1.0000
  H   H86       1.0  0.31371  0.00353  0.86022  1.0000
  H   H87       1.0  0.16402  0.45744  0.58209  1.0000
  H   H88       1.0  0.81341  0.49073  0.86069  1.0000
  H   H89       1.0  0.30202  0.91608  0.42546  1.0000
  H   H90       1.0  0.71280  0.88718  0.08438  1.0000
  H   H91       1.0  0.79573  0.40822  0.41779  1.0000
  H   H92       1.0  0.20654  0.40230  0.07998  1.0000
  H   H93       1.0  0.71215  0.09985  0.58616  1.0000
  H   H94       1.0  0.29572  0.09559  0.92022  1.0000
  H   H95       1.0  0.19310  0.50768  0.64914  1.0000
  H   H96       1.0  0.79450  0.58652  0.91956  1.0000
  H   H97       1.0  0.34282  0.09262  0.42839  1.0000
  H   H98       1.0  0.66265  0.03035  0.07614  1.0000
  H   H99       1.0  0.83961  0.57487  0.42127  1.0000
  H   H100      1.0  0.16065  0.56225  0.07166  1.0000
  H   H101      1.0  0.66401  0.95247  0.56696  1.0000
  H   H102      1.0  0.34063  0.93209  0.92604  1.0000
  H   H103      1.0  0.21320  0.60514  0.59120  1.0000
  H   H104      1.0  0.83840  0.41965  0.92739  1.0000
  C   C1        1.0  0.46551  0.52314  0.21203  1.0000
  C   C2        1.0  0.03451  0.02938  0.28823  1.0000
  C   C3        1.0  0.96796  0.02700  0.21440  1.0000
  C   C4        1.0  0.53439  0.47448  0.78798  1.0000
  C   C5        1.0  0.96707  0.96917  0.71201  1.0000
  C   C6        1.0  0.03393  0.97276  0.78551  1.0000
  C   C7        1.0  0.02896  0.78439  0.21855  1.0000
  C   C8        1.0  0.47189  0.28021  0.28221  1.0000
  C   C9        1.0  0.52624  0.27956  0.21454  1.0000
  C   C10       1.0  0.52813  0.71921  0.71793  1.0000
  C   C11       1.0  0.47372  0.71851  0.78525  1.0000
  C   C12       1.0  0.07879  0.77996  0.22290  1.0000
  C   C13       1.0  0.42208  0.27600  0.27836  1.0000
  C   C14       1.0  0.57593  0.27896  0.21662  1.0000
  C   C15       1.0  0.57788  0.72273  0.72126  1.0000
  C   C16       1.0  0.42391  0.72307  0.78124  1.0000
  C   C17       1.0  0.07605  0.51397  0.17196  1.0000
  C   C18       1.0  0.42495  0.01353  0.33120  1.0000
  C   C19       1.0  0.57303  0.01217  0.16609  1.0000
  C   C20       1.0  0.57481  0.98685  0.66939  1.0000
  C   C21       1.0  0.42696  0.98821  0.83269  1.0000
  C   C22       1.0  0.43707  0.63671  0.23721  1.0000
  C   C23       1.0  0.06346  0.14249  0.26357  1.0000
  C   C24       1.0  0.93878  0.14019  0.23869  1.0000
  C   C25       1.0  0.56276  0.36038  0.76286  1.0000
  C   C26       1.0  0.93865  0.85467  0.73690  1.0000
  C   C27       1.0  0.06267  0.85887  0.76089  1.0000
  C   C28       1.0  0.00312  0.65437  0.18811  1.0000
  C   C29       1.0  0.49779  0.15175  0.31322  1.0000
  C   C30       1.0  0.50028  0.14831  0.18490  1.0000
  C   C31       1.0  0.50211  0.84873  0.68752  1.0000
  C   C32       1.0  0.49971  0.84713  0.81620  1.0000
  C   C33       1.0  0.10199  0.64657  0.20051  1.0000
  C   C34       1.0  0.39897  0.14482  0.30196  1.0000
  C   C35       1.0  0.59900  0.14721  0.19325  1.0000
  C   C36       1.0  0.60088  0.85461  0.69790  1.0000
  C   C37       1.0  0.40090  0.85603  0.80404  1.0000
  C   C38       1.0  0.46528  0.53828  0.15563  1.0000
  C   C39       1.0  0.03431  0.04438  0.34461  1.0000
  C   C40       1.0  0.96784  0.03883  0.15788  1.0000
  C   C41       1.0  0.53439  0.45878  0.84438  1.0000
  C   C42       1.0  0.96694  0.95450  0.65554  1.0000
  C   C43       1.0  0.03460  0.96119  0.84213  1.0000
  C   C44       1.0  0.40898  0.77475  0.15067  1.0000
  C   C45       1.0  0.09093  0.28021  0.35042  1.0000
  C   C46       1.0  0.91079  0.27301  0.15122  1.0000
  C   C47       1.0  0.59011  0.22024  0.84929  1.0000
  C   C48       1.0  0.91084  0.71715  0.65013  1.0000
  C   C49       1.0  0.09104  0.72499  0.84802  1.0000
  C   C50       1.0  0.43748  0.66189  0.12544  1.0000
  C   C51       1.0  0.06215  0.16722  0.37520  1.0000
  C   C52       1.0  0.93964  0.15953  0.12676  1.0000
  C   C53       1.0  0.56179  0.33394  0.87449  1.0000
  C   C54       1.0  0.93920  0.83101  0.62512  1.0000
  C   C55       1.0  0.06282  0.83977  0.87288  1.0000
  C   C56       1.0  0.02579  0.52133  0.16523  1.0000
  C   C57       1.0  0.47520  0.02088  0.33733  1.0000
  C   C58       1.0  0.52283  0.01668  0.16115  1.0000
  C   C59       1.0  0.52458  0.98032  0.66365  1.0000
  C   C60       1.0  0.47720  0.97963  0.83956  1.0000
  C   C61       1.0  0.40861  0.75770  0.20734  1.0000
  C   C62       1.0  0.09169  0.26367  0.29383  1.0000
  C   C63       1.0  0.91023  0.25909  0.20791  1.0000
  C   C64       1.0  0.59070  0.23781  0.79269  1.0000
  C   C65       1.0  0.91052  0.73293  0.70682  1.0000
  C   C66       1.0  0.09128  0.73927  0.79127  1.0000
  C   C67       1.0  0.22434  0.89002  0.97249  1.0000
  C   C68       1.0  0.77567  0.88452  0.52599  1.0000
  C   C69       1.0  0.72265  0.38088  0.97245  1.0000
  C   C70       1.0  0.27644  0.39081  0.53178  1.0000
  C   C71       1.0  0.77446  0.10323  0.02755  1.0000
  C   C72       1.0  0.22440  0.11500  0.47610  1.0000
  C   C73       1.0  0.27604  0.61270  0.02810  1.0000
  C   C74       1.0  0.72344  0.60994  0.46949  1.0000
  C   C75       1.0  0.25973  0.80138  0.94922  1.0000
  C   C76       1.0  0.74041  0.79521  0.54925  1.0000
  C   C77       1.0  0.75775  0.29201  0.94883  1.0000
  C   C78       1.0  0.24118  0.30267  0.55545  1.0000
  C   C79       1.0  0.73926  0.19157  0.05124  1.0000
  C   C80       1.0  0.25996  0.20232  0.45282  1.0000
  C   C81       1.0  0.24059  0.70091  0.05132  1.0000
  C   C82       1.0  0.75866  0.69935  0.44619  1.0000
  C   C83       1.0  0.28575  0.66597  0.97617  1.0000
  C   C84       1.0  0.71417  0.66055  0.52188  1.0000
  C   C85       1.0  0.78379  0.15605  0.97545  1.0000
  C   C86       1.0  0.21469  0.16851  0.52811  1.0000
  C   C87       1.0  0.71307  0.32722  0.02449  1.0000
  C   C88       1.0  0.28593  0.33824  0.47968  1.0000
  C   C89       1.0  0.21472  0.83705  0.02454  1.0000
  C   C90       1.0  0.78505  0.83351  0.47363  1.0000
  C   C91       1.0  0.31998  0.47395  0.11188  1.0000
  C   C92       1.0  0.17908  0.97987  0.39236  1.0000
  C   C93       1.0  0.67871  0.52019  0.88864  1.0000
  C   C94       1.0  0.82167  0.01912  0.60955  1.0000
  C   C95       1.0  0.86831  0.94517  0.47496  1.0000
  C   C96       1.0  0.82173  0.92333  0.44737  1.0000
  C   C97       1.0  0.80889  0.00267  0.39629  1.0000
  C   C98       1.0  0.84043  0.11217  0.37590  1.0000
  C   C99       1.0  0.88598  0.14464  0.40558  1.0000
  C   C100      1.0  0.90013  0.05452  0.45435  1.0000
  C   C101      1.0  0.34261  0.33381  0.13848  1.0000
  C   C102      1.0  0.15611  0.84098  0.36530  1.0000
  C   C103      1.0  0.65625  0.66048  0.86193  1.0000
  C   C104      1.0  0.84501  0.15793  0.63627  1.0000
  C   C105      1.0  0.34564  0.17777  0.11120  1.0000
  C   C106      1.0  0.15381  0.68317  0.39168  1.0000
  C   C107      1.0  0.65341  0.81688  0.88908  1.0000
  C   C108      1.0  0.84715  0.31553  0.60973  1.0000
  C   C109      1.0  0.32468  0.16516  0.05614  1.0000
  C   C110      1.0  0.17576  0.66753  0.44630  1.0000
  C   C111      1.0  0.67448  0.82955  0.94412  1.0000
  C   C112      1.0  0.82472  0.33127  0.55533  1.0000
  C   C113      1.0  0.30282  0.30618  0.02939  1.0000
  C   C114      1.0  0.19788  0.80751  0.47358  1.0000
  C   C115      1.0  0.69630  0.68843  0.97091  1.0000
  C   C116      1.0  0.80214  0.19155  0.52846  1.0000
  C   C117      1.0  0.29995  0.46300  0.05665  1.0000
  C   C118      1.0  0.20008  0.96610  0.44719  1.0000
  C   C119      1.0  0.69888  0.53108  0.94385  1.0000
  C   C120      1.0  0.80004  0.03313  0.55497  1.0000
  C   C121      1.0  0.08660  0.28350  0.11404  1.0000
  C   C122      1.0  0.91606  0.27980  0.38868  1.0000
  C   C123      1.0  0.58326  0.77752  0.10939  1.0000
  C   C124      1.0  0.41442  0.78521  0.39033  1.0000
  C   C125      1.0  0.91388  0.71314  0.88740  1.0000
  C   C126      1.0  0.08257  0.72347  0.61087  1.0000
  C   C127      1.0  0.41633  0.22255  0.88952  1.0000
  C   C128      1.0  0.58517  0.21598  0.61078  1.0000
  C   C129      1.0  0.37283  0.03996  0.14033  1.0000
  C   C130      1.0  0.62554  0.04252  0.35530  1.0000
  C   C131      1.0  0.87467  0.53712  0.13945  1.0000
  C   C132      1.0  0.12666  0.54609  0.36198  1.0000
  C   C133      1.0  0.62623  0.95467  0.85984  1.0000
  C   C134      1.0  0.37544  0.96149  0.64206  1.0000
  C   C135      1.0  0.12661  0.45949  0.85957  1.0000
  C   C136      1.0  0.87471  0.45219  0.63902  1.0000
  C   C137      1.0  0.31031  0.03570  0.40584  1.0000
  C   C138      1.0  0.69715  0.00060  0.10074  1.0000
  C   C139      1.0  0.80624  0.52540  0.39842  1.0000
  C   C140      1.0  0.19349  0.51921  0.09720  1.0000
  C   C141      1.0  0.69562  0.98045  0.59701  1.0000
  C   C142      1.0  0.30736  0.97803  0.90203  1.0000
  C   C143      1.0  0.19845  0.48848  0.60664  1.0000
  C   C144      1.0  0.80592  0.46724  0.90220  1.0000
  C   C145      1.0  0.49908  0.40164  0.24834  1.0000
  C   C146      1.0  0.00135  0.90710  0.25159  1.0000
  C   C147      1.0  0.50103  0.59674  0.75159  1.0000
  C   C148      1.0  0.00022  0.09225  0.74850  1.0000
  N   N1        1.0  0.61665  0.89895  0.37738  1.0000
  N   N2        1.0  0.38216  0.89720  0.11796  1.0000
  N   N3        1.0  0.11778  0.40173  0.38359  1.0000
  N   N4        1.0  0.88335  0.39249  0.11787  1.0000
  N   N5        1.0  0.38403  0.10501  0.61979  1.0000
  N   N6        1.0  0.61688  0.09769  0.88204  1.0000
  N   N7        1.0  0.88386  0.59574  0.61709  1.0000
  N   N8        1.0  0.11802  0.60413  0.88119  1.0000
  N   N9        1.0  0.90021  0.37786  0.34811  1.0000
  N   N10       1.0  0.10279  0.37925  0.15510  1.0000
  N   N11       1.0  0.39827  0.87994  0.34901  1.0000
  N   N12       1.0  0.59968  0.87712  0.14933  1.0000
  N   N13       1.0  0.09921  0.62199  0.65020  1.0000
  N   N14       1.0  0.89776  0.61399  0.84717  1.0000
  N   N15       1.0  0.60150  0.12039  0.65176  1.0000
  N   N16       1.0  0.40014  0.12284  0.84949  1.0000
  O   O1        1.0  0.27055  0.15211  0.40234  1.0000
  O   O2        1.0  0.72921  0.14412  0.10219  1.0000
  O   O3        1.0  0.76876  0.65142  0.39521  1.0000
  O   O4        1.0  0.22946  0.65080  0.10159  1.0000
  O   O5        1.0  0.72948  0.84187  0.59996  1.0000
  O   O6        1.0  0.27054  0.84962  0.89863  1.0000
  O   O7        1.0  0.23157  0.34845  0.60680  1.0000
  O   O8        1.0  0.76836  0.34144  0.89830  1.0000
  C   C149      1.0  0.30985  0.53979  0.39106  1.0000
  C   C150      1.0  0.31853  0.43586  0.43723  1.0000
  C  Sn1       1.0  0.36237  0.44364  0.47137  1.0000
  C  Sn2       1.0  0.39811  0.55775  0.45894  1.0000
  C   C151      1.0  0.38907  0.66128  0.41267  1.0000
  C   C152      1.0  0.34508  0.65243  0.37878  1.0000
  H   H105      1.0  0.27581  0.53302  0.36485  1.0000
  O  Te1       1.0  0.37045  0.33885  0.51733  1.0000
  O  Te2       1.0  0.44223  0.56816  0.49237  1.0000
  H   H106      1.0  0.33836  0.73300  0.34305  1.0000
  Mg  Mg1       1.0  0.43628  0.39936  0.55036  1.0000
  C   C153      1.0  0.17310  0.08789  0.12708  1.0000
  C   C154      1.0  0.12794  0.14477  0.10377  1.0000
  C  Sn3       1.0  0.10649  0.08013  0.05353  1.0000
  C  Sn4       1.0  0.13088  0.95623  0.02623  1.0000
  C   C155      1.0  0.17603  0.90006  0.04991  1.0000
  C   C156      1.0  0.19717  0.96563  0.10019  1.0000
  H   H107      1.0  0.18945  0.13854  0.16600  1.0000
  O  Te3       1.0  0.06136  0.13841  0.03081  1.0000
  O  Te4       1.0  0.23771  0.89118  0.97598  1.0000
  H   H108      1.0  0.23212  0.92148  0.11825  1.0000
  Mg  Mg2       1.0  0.17552  0.01081  0.96155  1.0000
  C   C157      1.0  0.66953  0.58071  0.12533  1.0000
  C   C158      1.0  0.62466  0.63687  0.10079  1.0000
  C  Sn5       1.0  0.60407  0.57026  0.05048  1.0000
  C  Sn6       1.0  0.62893  0.44509  0.02436  1.0000
  C   C159      1.0  0.67378  0.38967  0.04927  1.0000
  C   C160      1.0  0.69406  0.45722  0.09961  1.0000
  H   H109      1.0  0.68521  0.63290  0.16430  1.0000
  O  Te5       1.0  0.55922  0.62782  0.02651  1.0000
  O  Te6       1.0  0.73662  0.37807  0.97407  1.0000
  H   H110      1.0  0.72879  0.41364  0.11863  1.0000
  Mg  Mg3       1.0  0.67460  0.49742  0.95771  1.0000
  C   C161      1.0  0.87865  0.02283  0.97721  1.0000
  C   C162      1.0  0.83296  0.07448  0.95396  1.0000
  C  Sn7       1.0  0.81161  0.00494  0.90439  1.0000
  C  Sn8       1.0  0.83665  0.88138  0.87771  1.0000
  C   C163      1.0  0.88233  0.83047  0.90133  1.0000
  C   C164      1.0  0.90336  0.90093  0.95094  1.0000
  H   H111      1.0  0.76746  0.07552  0.01561  1.0000
  O  Te7       1.0  0.76595  0.05801  0.88171  1.0000
  O  Te8       1.0  0.81615  0.80976  0.82814  1.0000
  H   H112      1.0  0.93872  0.86083  0.96895  1.0000
  Mg  Mg4       1.0  0.75316  0.92328  0.81349  1.0000
  C   C165      1.0  0.32788  0.40464  0.87681  1.0000
  C   C166      1.0  0.37588  0.37266  0.89636  1.0000
  C  Sn9       1.0  0.39719  0.44437  0.94561  1.0000
  C  Sn10      1.0  0.36984  0.54995  0.97577  1.0000
  C   C167      1.0  0.32184  0.58106  0.95588  1.0000
  C   C168      1.0  0.30087  0.50871  0.90654  1.0000
  H   H113      1.0  0.31164  0.34859  0.83866  1.0000
  O  Te9       1.0  0.44520  0.41115  0.96454  1.0000
  O  Te10      1.0  0.26279  0.62144  0.02512  1.0000
  H   H114      1.0  0.26370  0.53340  0.89143  1.0000
  Mg  Mg5       1.0  0.32950  0.53842  0.03398  1.0000
  C   C169      1.0  0.10126  0.98209  0.53514  1.0000
  C   C170      1.0  0.10804  0.87911  0.58164  1.0000
  C  Sn11      1.0  0.15089  0.88625  0.61759  1.0000
  C  Sn12      1.0  0.18756  0.99874  0.60669  1.0000
  C   C171      1.0  0.18032  0.10133  0.56008  1.0000
  C   C172      1.0  0.13730  0.09313  0.52437  1.0000
  H   H115      1.0  0.06797  0.97583  0.50752  1.0000
  O  Te11      1.0  0.15709  0.78243  0.66385  1.0000
  O  Te12      1.0  0.23064  0.00847  0.64195  1.0000
  H   H116      1.0  0.13205  0.17296  0.48839  1.0000
  Mg  Mg6       1.0  0.22222  0.84147  0.69963  1.0000
  C   C173      1.0  0.41533  0.25903  0.72318  1.0000
  C   C174      1.0  0.40675  0.23687  0.66657  1.0000
  C  Sn13      1.0  0.43210  0.33233  0.63279  1.0000
  C  Sn14      1.0  0.46667  0.45207  0.65624  1.0000
  C   C175      1.0  0.47501  0.47321  0.71292  1.0000
  C   C176      1.0  0.44943  0.37706  0.74634  1.0000
  H   H117      1.0  0.39556  0.18458  0.74904  1.0000
  O  Te13      1.0  0.42307  0.30864  0.57631  1.0000
  O  Te14      1.0  0.49252  0.54911  0.62343  1.0000
  H   H118      1.0  0.45611  0.39417  0.79017  1.0000
  Mg  Mg7       1.0  0.46744  0.47096  0.54868  1.0000
  C   C177      1.0  0.01140  0.45306  0.66192  1.0000
  C   C178      1.0  0.06005  0.48984  0.66545  1.0000
  C  Sn15      1.0  0.09405  0.37708  0.69168  1.0000
  C  Sn16      1.0  0.07895  0.22475  0.71475  1.0000
  C   C179      1.0  0.03020  0.18905  0.71096  1.0000
  C   C180      1.0  0.99648  0.30281  0.68464  1.0000
  H   H119      1.0  0.98532  0.54101  0.64153  1.0000
  O  Te15      1.0  0.14251  0.41583  0.69486  1.0000
  O  Te16      1.0  0.11217  0.10978  0.74117  1.0000
  H   H120      1.0  0.95882  0.27424  0.68188  1.0000
  Mg  Mg8       1.0  0.17418  0.21912  0.73500  1.0000
  C   C181      1.0  0.89872  0.30826  0.79283  1.0000
  C   C182      1.0  0.91788  0.44452  0.82516  1.0000
  C  Sn17      1.0  0.96722  0.47006  0.83497  1.0000
  C  Sn18      1.0  0.99787  0.35692  0.81193  1.0000
  C   C183      1.0  0.97836  0.22106  0.77961  1.0000
  C   C184      1.0  0.92893  0.19664  0.77006  1.0000
  H   H121      1.0  0.86048  0.28941  0.78542  1.0000
  O  Te17      1.0  0.98576  0.60680  0.86738  1.0000
  O  Te18      1.0  0.04732  0.37953  0.82106  1.0000
  H   H122      1.0  0.91411  0.09120  0.74500  1.0000
  Mg  Mg9       1.0  0.05553  0.58451  0.86806  1.0000
  C   C185      1.0  0.69283  0.25800  0.46719  1.0000
  C   C186      1.0  0.70075  0.42080  0.44765  1.0000
  C  Sn19      1.0  0.68221  0.46596  0.39417  1.0000
  C  Sn20      1.0  0.65524  0.34566  0.35971  1.0000
  C   C187      1.0  0.64748  0.18316  0.37966  1.0000
  C   C188      1.0  0.66622  0.13928  0.43324  1.0000
  H   H123      1.0  0.70730  0.22407  0.50866  1.0000
  O  Te19      1.0  0.69048  0.62914  0.37529  1.0000
  O  Te20      1.0  0.63627  0.38746  0.30609  1.0000
  H   H124      1.0  0.66005  0.01327  0.44837  1.0000
  Mg  Mg10      1.0  0.65725  0.62582  0.29911  1.0000
  C   C189      1.0  0.00068  0.61914  0.32565  1.0000
  C   C190      1.0  0.98111  0.75090  0.29164  1.0000
  C  Sn21      1.0  0.93162  0.76901  0.27934  1.0000
  C  Sn22      1.0  0.90125  0.65290  0.30159  1.0000
  C   C191      1.0  0.92118  0.52158  0.33561  1.0000
  C   C192      1.0  0.97075  0.50459  0.34762  1.0000
  H   H125      1.0  0.03903  0.60603  0.33498  1.0000
  O  Te21      1.0  0.91266  0.90133  0.24528  1.0000
  O  Te22      1.0  0.85166  0.66810  0.28999  1.0000
  H   H126      1.0  0.98589  0.40263  0.37399  1.0000
  Mg  Mg11      1.0  0.84286  0.86928  0.24143  1.0000
  C   C193      1.0  0.53927  0.55518  0.35468  1.0000
  C   C194      1.0  0.53064  0.52851  0.29827  1.0000
  C  Sn23      1.0  0.55465  0.62529  0.26351  1.0000
  C  Sn24      1.0  0.58792  0.75097  0.28575  1.0000
  C   C195      1.0  0.59633  0.77659  0.34224  1.0000
  C   C196      1.0  0.57209  0.67907  0.37665  1.0000
  H   H127      1.0  0.52054  0.47967  0.38131  1.0000
  O  Te23      1.0  0.54559  0.59703  0.20725  1.0000
  O  Te24      1.0  0.61243  0.84945  0.25194  1.0000
  H   H128      1.0  0.57880  0.69967  0.42033  1.0000
  Mg  Mg12      1.0  0.58786  0.76355  0.17795  1.0000
  C   C197      1.0  0.80610  0.75253  0.02853  1.0000
  C   C198      1.0  0.79772  0.91414  0.04871  1.0000
  C  Sn25      1.0  0.81652  0.95856  0.10220  1.0000
  C  Sn26      1.0  0.84424  0.83869  0.13602  1.0000
  C   C199      1.0  0.85245  0.67738  0.11543  1.0000
  C   C200      1.0  0.83345  0.63425  0.06185  1.0000
  H   H129      1.0  0.91888  0.72092  0.98707  1.0000
  O  Te25      1.0  0.80769  0.12055  0.12172  1.0000
  O  Te26      1.0  0.86347  0.87976  0.18963  1.0000
  H   H130      1.0  0.83998  0.50914  0.04623  1.0000
  Mg  Mg13      1.0  0.84154  0.11658  0.19761  1.0000
  C   C201      1.0  0.32027  0.81756  0.54557  1.0000
  C   C202      1.0  0.33998  0.83506  0.60043  1.0000
  C  Sn27      1.0  0.34194  0.69561  0.63568  1.0000
  C  Sn28      1.0  0.32382  0.53583  0.61551  1.0000
  C   C203      1.0  0.30420  0.51961  0.56055  1.0000
  C   C204      1.0  0.30240  0.66000  0.52563  1.0000
  H   H131      1.0  0.31889  0.92614  0.51854  1.0000
  O  Te27      1.0  0.36174  0.71533  0.69038  1.0000
  O  Te28      1.0  0.32535  0.39435  0.64984  1.0000
  H   H132      1.0  0.28716  0.64638  0.48315  1.0000
  Mg  Mg14      1.0  0.35576  0.48502  0.72117  1.0000
  C   C205      1.0  0.16142  0.12187  0.86117  1.0000
  C   C206      1.0  0.15161  0.28131  0.88196  1.0000
  C  Sn29      1.0  0.16953  0.32438  0.93583  1.0000
  C  Sn30      1.0  0.19779  0.20537  0.96941  1.0000
  C   C207      1.0  0.20743  0.04624  0.94821  1.0000
  C   C208      1.0  0.18931  0.00444  0.89425  1.0000
  H   H133      1.0  0.14742  0.08956  0.81941  1.0000
  O  Te29      1.0  0.15937  0.48420  0.95596  1.0000
  O  Te30      1.0  0.08872  0.24339  0.02339  1.0000
  H   H134      1.0  0.19703  0.88103  0.87816  1.0000
  Mg  Mg15      1.0  0.06502  0.47734  0.03218  1.0000
  C   C209      1.0  0.68860  0.46957  0.61232  1.0000
  C   C210      1.0  0.68292  0.55076  0.56157  1.0000
  C  Sn31      1.0  0.63968  0.53871  0.52647  1.0000
  C  Sn32      1.0  0.60149  0.44355  0.54259  1.0000
  C   C211      1.0  0.60753  0.36288  0.59347  1.0000
  C   C212      1.0  0.65095  0.37574  0.62827  1.0000
  H   H135      1.0  0.72219  0.47958  0.63926  1.0000
  O  Te31      1.0  0.63461  0.62057  0.47589  1.0000
  O  Te32      1.0  0.55789  0.42946  0.50831  1.0000
  H   H136      1.0  0.65533  0.31295  0.66758  1.0000
  Mg  Mg16      1.0  0.56834  0.56384  0.44344  1.0000
