data_image0
_chemical_formula_structural       H104C148N16O8SnCSn2CSnTe4Mg2SnCSn2CSnTe4Mg2SnCSn2CSnTe4Mg2SnCSn2CSnTe4Mg2SnCSn2CSnTe4Mg2SnCSn2CSnTe4Mg2SnCSn2CSnTe4Mg2SnCSn2CSnTe4Mg2SnCSn2CSnTe4Mg2SnCSn2CSnTe4Mg2SnCSn2CSnTe4Mg2SnCSn2CSnTe4Mg2SnCSn2CSnTe4Mg2SnCSn2CSnTe4Mg2SnCSn2CSnTe4Mg2SnCSn2CSnTe4Mg2
_chemical_formula_sum              "H104 C180 N16 O8 Sn64 Te64 Mg32"
_cell_length_a       28.3122
_cell_length_b       7.85822
_cell_length_c       24.7507
_cell_angle_alpha    90.0289
_cell_angle_beta     98.3831
_cell_angle_gamma    90.019

_symmetry_space_group_name_H-M    'P1'
_space_group_IT_number       1

loop_
  _space_group_symop_operation_xyz
  'x, y, z'

loop_
  _atom_site_type_symbol
  _atom_site_label
  _atom_site_symmetry_multiplicity
  _atom_site_fract_x
  _atom_site_fract_y
  _atom_site_fract_z
  _atom_site_occupancy
  H   H1        1.0  0.90262  0.87422  0.25620  1.0000
  H   H2        1.0  0.09854  0.12101  0.73976  1.0000
  H   H3        1.0  0.90206  0.11438  0.75716  1.0000
  H   H4        1.0  0.59923  0.62375  0.74348  1.0000
  H   H5        1.0  0.40249  0.62446  0.75882  1.0000
  H   H6        1.0  0.43760  0.63192  0.28120  1.0000
  H   H7        1.0  0.93856  0.13619  0.28257  1.0000
  H   H8        1.0  0.43865  0.36838  0.78359  1.0000
  H   H9        1.0  0.56256  0.36609  0.71892  1.0000
  H   H10       1.0  0.06230  0.86249  0.71692  1.0000
  H   H11       1.0  0.03851  0.65810  0.32069  1.0000
  H   H12       1.0  0.96205  0.34258  0.68113  1.0000
  H   H13       1.0  0.03693  0.35154  0.81408  1.0000
  H   H14       1.0  0.46345  0.85035  0.68465  1.0000
  H   H15       1.0  0.53842  0.84764  0.81973  1.0000
  H   H16       1.0  0.86214  0.63613  0.29591  1.0000
  H   H17       1.0  0.13814  0.35838  0.69887  1.0000
  H   H18       1.0  0.86076  0.34804  0.79763  1.0000
  H   H19       1.0  0.63965  0.85873  0.70207  1.0000
  H   H20       1.0  0.36212  0.86083  0.79934  1.0000
  H   H21       1.0  0.48740  0.45340  0.13530  1.0000
  H   H22       1.0  0.99002  0.95303  0.13793  1.0000
  H   H23       1.0  0.49005  0.54605  0.63845  1.0000
  H   H24       1.0  0.51256  0.54435  0.86489  1.0000
  H   H25       1.0  0.01270  0.04713  0.86243  1.0000
  H   H26       1.0  0.43798  0.67416  0.08174  1.0000
  H   H27       1.0  0.93980  0.16842  0.08291  1.0000
  H   H28       1.0  0.43994  0.32802  0.58416  1.0000
  H   H29       1.0  0.56117  0.32149  0.91817  1.0000
  H   H30       1.0  0.06319  0.83105  0.91681  1.0000
  H   H31       1.0  0.99867  0.42242  0.36042  1.0000
  H   H32       1.0  0.00101  0.57826  0.64044  1.0000
  H   H33       1.0  0.99625  0.58339  0.85463  1.0000
  H   H34       1.0  0.50316  0.08305  0.64335  1.0000
  H   H35       1.0  0.49865  0.08136  0.86044  1.0000
  H   H36       1.0  0.38632  0.83982  0.22842  1.0000
  H   H37       1.0  0.88740  0.34162  0.22812  1.0000
  H   H38       1.0  0.38723  0.16124  0.72990  1.0000
  H   H39       1.0  0.61282  0.15482  0.77167  1.0000
  H   H40       1.0  0.11365  0.65619  0.77063  1.0000
  H   H41       1.0  0.81982  0.08954  0.13180  1.0000
  H   H42       1.0  0.18063  0.90595  0.86756  1.0000
  H   H43       1.0  0.87844  0.88123  0.51391  1.0000
  H   H44       1.0  0.62000  0.37882  0.98396  1.0000
  H   H45       1.0  0.37952  0.39095  0.51841  1.0000
  H   H46       1.0  0.12201  0.12076  0.48605  1.0000
  H   H47       1.0  0.77313  0.98362  0.37439  1.0000
  H   H48       1.0  0.72479  0.47286  0.12480  1.0000
  H   H49       1.0  0.27205  0.48721  0.38053  1.0000
  H   H50       1.0  0.22490  0.02313  0.62815  1.0000
  H   H51       1.0  0.83015  0.17999  0.33771  1.0000
  H   H52       1.0  0.66828  0.67141  0.16139  1.0000
  H   H53       1.0  0.32775  0.68392  0.34199  1.0000
  H   H54       1.0  0.16717  0.82734  0.66385  1.0000
  H   H55       1.0  0.93552  0.07598  0.47721  1.0000
  H   H56       1.0  0.56353  0.57596  0.02061  1.0000
  H   H57       1.0  0.43530  0.58598  0.47991  1.0000
  H   H58       1.0  0.06401  0.92743  0.52186  1.0000
  H   H59       1.0  0.86238  0.84443  0.17883  1.0000
  H   H60       1.0  0.13881  0.15225  0.82019  1.0000
  H   H61       1.0  0.82582  0.53599  0.03508  1.0000
  H   H62       1.0  0.17412  0.45860  0.96459  1.0000
  H   H63       1.0  0.78522  0.78505  0.98696  1.0000
  H   H64       1.0  0.21356  0.20786  0.01313  1.0000
  H   H65       1.0  0.05164  0.30515  0.08911  1.0000
  H   H66       1.0  0.95114  0.29815  0.41374  1.0000
  H   H67       1.0  0.54811  0.79635  0.08452  1.0000
  H   H68       1.0  0.44949  0.80683  0.41507  1.0000
  H   H69       1.0  0.94944  0.69683  0.91155  1.0000
  H   H70       1.0  0.04722  0.70668  0.58626  1.0000
  H   H71       1.0  0.45170  0.20570  0.91404  1.0000
  H   H72       1.0  0.55004  0.19501  0.58608  1.0000
  H   H73       1.0  0.38673  0.06849  0.18329  1.0000
  H   H74       1.0  0.61120  0.07232  0.31257  1.0000
  H   H75       1.0  0.88970  0.56851  0.18185  1.0000
  H   H76       1.0  0.11244  0.57617  0.31923  1.0000
  H   H77       1.0  0.61232  0.92590  0.81690  1.0000
  H   H78       1.0  0.39001  0.93294  0.68481  1.0000
  H   H79       1.0  0.11199  0.42883  0.81698  1.0000
  H   H80       1.0  0.88896  0.42257  0.68178  1.0000
  H   H81       1.0  0.31626  0.00984  0.36392  1.0000
  H   H82       1.0  0.69163  0.97664  0.14293  1.0000
  H   H83       1.0  0.81180  0.49763  0.35648  1.0000
  H   H84       1.0  0.18591  0.49408  0.13859  1.0000
  H   H85       1.0  0.68470  0.99215  0.63751  1.0000
  H   H86       1.0  0.31371  0.00353  0.86022  1.0000
  H   H87       1.0  0.16402  0.45744  0.58209  1.0000
  H   H88       1.0  0.81341  0.49073  0.86069  1.0000
  H   H89       1.0  0.30202  0.91608  0.42546  1.0000
  H   H90       1.0  0.71280  0.88718  0.08438  1.0000
  H   H91       1.0  0.79573  0.40822  0.41779  1.0000
  H   H92       1.0  0.20654  0.40230  0.07998  1.0000
  H   H93       1.0  0.71215  0.09985  0.58616  1.0000
  H   H94       1.0  0.29572  0.09559  0.92022  1.0000
  H   H95       1.0  0.19310  0.50768  0.64914  1.0000
  H   H96       1.0  0.79450  0.58652  0.91956  1.0000
  H   H97       1.0  0.34282  0.09262  0.42839  1.0000
  H   H98       1.0  0.66265  0.03035  0.07614  1.0000
  H   H99       1.0  0.83961  0.57487  0.42127  1.0000
  H   H100      1.0  0.16065  0.56225  0.07166  1.0000
  H   H101      1.0  0.66401  0.95247  0.56696  1.0000
  H   H102      1.0  0.34063  0.93209  0.92604  1.0000
  H   H103      1.0  0.21320  0.60514  0.59120  1.0000
  H   H104      1.0  0.83840  0.41965  0.92739  1.0000
  C   C1        1.0  0.46551  0.52314  0.21203  1.0000
  C   C2        1.0  0.96796  0.02700  0.21440  1.0000
  C   C3        1.0  0.46757  0.47572  0.71493  1.0000
  C   C4        1.0  0.53439  0.47448  0.78798  1.0000
  C   C5        1.0  0.03393  0.97276  0.78551  1.0000
  C   C6        1.0  0.97384  0.78463  0.28491  1.0000
  C   C7        1.0  0.02711  0.21432  0.71450  1.0000
  C   C8        1.0  0.97280  0.21457  0.78195  1.0000
  C   C9        1.0  0.52813  0.71921  0.71793  1.0000
  C   C10       1.0  0.47372  0.71851  0.78525  1.0000
  C   C11       1.0  0.92397  0.77712  0.27943  1.0000
  C   C12       1.0  0.07683  0.21945  0.71770  1.0000
  C   C13       1.0  0.92307  0.21517  0.77895  1.0000
  C   C14       1.0  0.57788  0.72273  0.72126  1.0000
  C   C15       1.0  0.42391  0.72307  0.78124  1.0000
  C   C16       1.0  0.92696  0.51293  0.33143  1.0000
  C   C17       1.0  0.07294  0.48542  0.66664  1.0000
  C   C18       1.0  0.92504  0.48158  0.82974  1.0000
  C   C19       1.0  0.57481  0.98685  0.66939  1.0000
  C   C20       1.0  0.42696  0.98821  0.83269  1.0000
  C   C21       1.0  0.43707  0.63671  0.23721  1.0000
  C   C22       1.0  0.93878  0.14019  0.23869  1.0000
  C   C23       1.0  0.43854  0.36317  0.73967  1.0000
  C   C24       1.0  0.56276  0.36038  0.76286  1.0000
  C   C25       1.0  0.06267  0.85887  0.76089  1.0000
  C   C26       1.0  0.99975  0.65698  0.31637  1.0000
  C   C27       1.0  0.00070  0.34272  0.68400  1.0000
  C   C28       1.0  0.99830  0.34689  0.81167  1.0000
  C   C29       1.0  0.50211  0.84873  0.68752  1.0000
  C   C30       1.0  0.49971  0.84713  0.81620  1.0000
  C   C31       1.0  0.90093  0.64319  0.30176  1.0000
  C   C32       1.0  0.09939  0.35306  0.69464  1.0000
  C   C33       1.0  0.89955  0.34673  0.80185  1.0000
  C   C34       1.0  0.60088  0.85461  0.69790  1.0000
  C   C35       1.0  0.40090  0.85603  0.80404  1.0000
  C   C36       1.0  0.46528  0.53828  0.15563  1.0000
  C   C37       1.0  0.96784  0.03883  0.15788  1.0000
  C   C38       1.0  0.46761  0.46161  0.65853  1.0000
  C   C39       1.0  0.53439  0.45878  0.84438  1.0000
  C   C40       1.0  0.03460  0.96119  0.84213  1.0000
  C   C41       1.0  0.40898  0.77475  0.15067  1.0000
  C   C42       1.0  0.91079  0.27301  0.15122  1.0000
  C   C43       1.0  0.41078  0.22694  0.65276  1.0000
  C   C44       1.0  0.59011  0.22024  0.84929  1.0000
  C   C45       1.0  0.09104  0.72499  0.84802  1.0000
  C   C46       1.0  0.43748  0.66189  0.12544  1.0000
  C   C47       1.0  0.93964  0.15953  0.12676  1.0000
  C   C48       1.0  0.43954  0.33957  0.62790  1.0000
  C   C49       1.0  0.56179  0.33394  0.87449  1.0000
  C   C50       1.0  0.06282  0.83977  0.87288  1.0000
  C   C51       1.0  0.97720  0.52353  0.33924  1.0000
  C   C52       1.0  0.02275  0.47604  0.66052  1.0000
  C   C53       1.0  0.97530  0.47821  0.83508  1.0000
  C   C54       1.0  0.52458  0.98032  0.66365  1.0000
  C   C55       1.0  0.47720  0.97963  0.83956  1.0000
  C   C56       1.0  0.40861  0.75770  0.20734  1.0000
  C   C57       1.0  0.91023  0.25909  0.20791  1.0000
  C   C58       1.0  0.41001  0.24308  0.70937  1.0000
  C   C59       1.0  0.59070  0.23781  0.79269  1.0000
  C   C60       1.0  0.09128  0.73927  0.79127  1.0000
  C   C61       1.0  0.22434  0.89002  0.97249  1.0000
  C   C62       1.0  0.77567  0.88452  0.52599  1.0000
  C   C63       1.0  0.72265  0.38088  0.97245  1.0000
  C   C64       1.0  0.27644  0.39081  0.53178  1.0000
  C   C65       1.0  0.77446  0.10323  0.02755  1.0000
  C   C66       1.0  0.22440  0.11500  0.47610  1.0000
  C   C67       1.0  0.27604  0.61270  0.02810  1.0000
  C   C68       1.0  0.72344  0.60994  0.46949  1.0000
  C   C69       1.0  0.25973  0.80138  0.94922  1.0000
  C   C70       1.0  0.74041  0.79521  0.54925  1.0000
  C   C71       1.0  0.75775  0.29201  0.94883  1.0000
  C   C72       1.0  0.24118  0.30267  0.55545  1.0000
  C   C73       1.0  0.73926  0.19157  0.05124  1.0000
  C   C74       1.0  0.25996  0.20232  0.45282  1.0000
  C   C75       1.0  0.24059  0.70091  0.05132  1.0000
  C   C76       1.0  0.75866  0.69935  0.44619  1.0000
  C   C77       1.0  0.28575  0.66597  0.97617  1.0000
  C   C78       1.0  0.71417  0.66055  0.52188  1.0000
  C   C79       1.0  0.78379  0.15605  0.97545  1.0000
  C   C80       1.0  0.21469  0.16851  0.52811  1.0000
  C   C81       1.0  0.71307  0.32722  0.02449  1.0000
  C   C82       1.0  0.28593  0.33824  0.47968  1.0000
  C   C83       1.0  0.21472  0.83705  0.02454  1.0000
  C   C84       1.0  0.78505  0.83351  0.47363  1.0000
  C   C85       1.0  0.82070  0.96863  0.11073  1.0000
  C   C86       1.0  0.17953  0.02659  0.88872  1.0000
  C   C87       1.0  0.86831  0.94517  0.47496  1.0000
  C   C88       1.0  0.63016  0.44112  0.02319  1.0000
  C   C89       1.0  0.36874  0.45280  0.47924  1.0000
  C   C90       1.0  0.13130  0.05819  0.52539  1.0000
  C   C91       1.0  0.82173  0.92333  0.44737  1.0000
  C   C92       1.0  0.67652  0.41664  0.05107  1.0000
  C   C93       1.0  0.32197  0.42867  0.45259  1.0000
  C   C94       1.0  0.17751  0.08052  0.55397  1.0000
  C   C95       1.0  0.80889  0.00267  0.39629  1.0000
  C   C96       1.0  0.68928  0.49415  0.10253  1.0000
  C   C97       1.0  0.30811  0.50688  0.40152  1.0000
  C   C98       1.0  0.18945  0.00318  0.60552  1.0000
  C   C99       1.0  0.84043  0.11217  0.37590  1.0000
  C   C100      1.0  0.65805  0.60507  0.12287  1.0000
  C   C101      1.0  0.33894  0.61670  0.38008  1.0000
  C   C102      1.0  0.15749  0.89421  0.62536  1.0000
  C   C103      1.0  0.88598  0.14464  0.40558  1.0000
  C   C104      1.0  0.61288  0.64061  0.09276  1.0000
  C   C105      1.0  0.38485  0.65060  0.40860  1.0000
  C   C106      1.0  0.11245  0.86042  0.59467  1.0000
  C   C107      1.0  0.90013  0.05452  0.45435  1.0000
  C   C108      1.0  0.59868  0.55191  0.04372  1.0000
  C   C109      1.0  0.39982  0.56265  0.45760  1.0000
  C   C110      1.0  0.09904  0.94953  0.54552  1.0000
  C   C111      1.0  0.84429  0.83012  0.13717  1.0000
  C   C112      1.0  0.15645  0.16576  0.86209  1.0000
  C   C113      1.0  0.84674  0.67307  0.11034  1.0000
  C   C114      1.0  0.15389  0.32259  0.88899  1.0000
  C   C115      1.0  0.82432  0.65749  0.05593  1.0000
  C   C116      1.0  0.17559  0.33713  0.94373  1.0000
  C   C117      1.0  0.80148  0.79696  0.02931  1.0000
  C   C118      1.0  0.19778  0.19682  0.97058  1.0000
  C   C119      1.0  0.79911  0.95480  0.05611  1.0000
  C   C120      1.0  0.20028  0.03919  0.94369  1.0000
  C   C121      1.0  0.08660  0.28350  0.11404  1.0000
  C   C122      1.0  0.91606  0.27980  0.38868  1.0000
  C   C123      1.0  0.58326  0.77752  0.10939  1.0000
  C   C124      1.0  0.41442  0.78521  0.39033  1.0000
  C   C125      1.0  0.91388  0.71314  0.88740  1.0000
  C   C126      1.0  0.08257  0.72347  0.61087  1.0000
  C   C127      1.0  0.41633  0.22255  0.88952  1.0000
  C   C128      1.0  0.58517  0.21598  0.61078  1.0000
  C   C129      1.0  0.37283  0.03996  0.14033  1.0000
  C   C130      1.0  0.62554  0.04252  0.35530  1.0000
  C   C131      1.0  0.87467  0.53712  0.13945  1.0000
  C   C132      1.0  0.12666  0.54609  0.36198  1.0000
  C   C133      1.0  0.62623  0.95467  0.85984  1.0000
  C   C134      1.0  0.37544  0.96149  0.64206  1.0000
  C   C135      1.0  0.12661  0.45949  0.85957  1.0000
  C   C136      1.0  0.87471  0.45219  0.63902  1.0000
  C   C137      1.0  0.31031  0.03570  0.40584  1.0000
  C   C138      1.0  0.69715  0.00060  0.10074  1.0000
  C   C139      1.0  0.80624  0.52540  0.39842  1.0000
  C   C140      1.0  0.19349  0.51921  0.09720  1.0000
  C   C141      1.0  0.69562  0.98045  0.59701  1.0000
  C   C142      1.0  0.30736  0.97803  0.90203  1.0000
  C   C143      1.0  0.19845  0.48848  0.60664  1.0000
  C   C144      1.0  0.80592  0.46724  0.90220  1.0000
  C   C145      1.0  0.49908  0.40164  0.24834  1.0000
  C   C146      1.0  0.00135  0.90710  0.25159  1.0000
  C   C147      1.0  0.50103  0.59674  0.75159  1.0000
  C   C148      1.0  0.00022  0.09225  0.74850  1.0000
  N   N1        1.0  0.61665  0.89895  0.37738  1.0000
  N   N2        1.0  0.38216  0.89720  0.11796  1.0000
  N   N3        1.0  0.11778  0.40173  0.38359  1.0000
  N   N4        1.0  0.88335  0.39249  0.11787  1.0000
  N   N5        1.0  0.38403  0.10501  0.61979  1.0000
  N   N6        1.0  0.61688  0.09769  0.88204  1.0000
  N   N7        1.0  0.88386  0.59574  0.61709  1.0000
  N   N8        1.0  0.11802  0.60413  0.88119  1.0000
  N   N9        1.0  0.90021  0.37786  0.34811  1.0000
  N   N10       1.0  0.10279  0.37925  0.15510  1.0000
  N   N11       1.0  0.39827  0.87994  0.34901  1.0000
  N   N12       1.0  0.59968  0.87712  0.14933  1.0000
  N   N13       1.0  0.09921  0.62199  0.65020  1.0000
  N   N14       1.0  0.89776  0.61399  0.84717  1.0000
  N   N15       1.0  0.60150  0.12039  0.65176  1.0000
  N   N16       1.0  0.40014  0.12284  0.84949  1.0000
  O   O1        1.0  0.27055  0.15211  0.40234  1.0000
  O   O2        1.0  0.72921  0.14412  0.10219  1.0000
  O   O3        1.0  0.76876  0.65142  0.39521  1.0000
  O   O4        1.0  0.22946  0.65080  0.10159  1.0000
  O   O5        1.0  0.72948  0.84187  0.59996  1.0000
  O   O6        1.0  0.27054  0.84962  0.89863  1.0000
  O   O7        1.0  0.23157  0.34845  0.60680  1.0000
  O   O8        1.0  0.76836  0.34144  0.89830  1.0000
  C  Sn1       1.0  0.39154  0.43331  0.97112  1.0000
  C   C149      1.0  0.38437  0.34286  0.92198  1.0000
  C  Sn2       1.0  0.34630  0.38353  0.88155  1.0000
  C  Sn3       1.0  0.31474  0.51747  0.89042  1.0000
  C   C150      1.0  0.32192  0.60785  0.93953  1.0000
  C  Sn4       1.0  0.35998  0.56725  0.97999  1.0000
  O  Te1       1.0  0.30239  0.38873  0.01097  1.0000
  O  Te2       1.0  0.33985  0.29125  0.83276  1.0000
  O  Te3       1.0  0.27642  0.56025  0.85052  1.0000
  O  Te4       1.0  0.23899  0.65772  0.02875  1.0000
  Mg  Mg1       1.0  0.28250  0.39752  0.79086  1.0000
  Mg  Mg2       1.0  0.29634  0.55162  0.07066  1.0000
  C  Sn5       1.0  0.02808  0.10025  0.35139  1.0000
  C   C151      1.0  0.02529  0.06397  0.29573  1.0000
  C  Sn6       1.0  0.05978  0.12663  0.26590  1.0000
  C  Sn7       1.0  0.09787  0.22758  0.29225  1.0000
  C   C152      1.0  0.10065  0.26378  0.34788  1.0000
  C  Sn8       1.0  0.06617  0.20119  0.37774  1.0000
  O  Te5       1.0  0.99320  0.03627  0.38040  1.0000
  O  Te6       1.0  0.05622  0.08871  0.21029  1.0000
  O  Te7       1.0  0.13276  0.29156  0.26318  1.0000
  O  Te8       1.0  0.06972  0.23904  0.43331  1.0000
  Mg  Mg3       1.0  0.11246  0.20504  0.18828  1.0000
  Mg  Mg4       1.0  0.01352  0.12272  0.45538  1.0000
  C  Sn9       1.0  0.95725  0.82812  0.63084  1.0000
  C   C153      1.0  0.92649  0.70897  0.64906  1.0000
  C  Sn10      1.0  0.91177  0.72732  0.70022  1.0000
  C  Sn11      1.0  0.92812  0.86776  0.73385  1.0000
  C   C154      1.0  0.95885  0.98683  0.71563  1.0000
  C  Sn12      1.0  0.97360  0.96856  0.66448  1.0000
  O  Te9       1.0  0.97150  0.80725  0.57955  1.0000
  O  Te10      1.0  0.88102  0.60652  0.71755  1.0000
  O  Te11      1.0  0.91384  0.88855  0.78518  1.0000
  O  Te12      1.0  0.00423  0.08928  0.64713  1.0000
  Mg  Mg5       1.0  0.87164  0.69038  0.79068  1.0000
  Mg  Mg6       1.0  0.01361  0.00560  0.57400  1.0000
  C  Sn13      1.0  0.58279  0.28270  0.19869  1.0000
  C   C155      1.0  0.53402  0.30285  0.20064  1.0000
  C  Sn14      1.0  0.50268  0.16612  0.18877  1.0000
  C  Sn15      1.0  0.52045  0.00585  0.17470  1.0000
  C   C156      1.0  0.56928  0.98575  0.17276  1.0000
  C  Sn16      1.0  0.60056  0.12243  0.18462  1.0000
  O  Te13      1.0  0.61347  0.42114  0.21071  1.0000
  O  Te14      1.0  0.45407  0.18938  0.19097  1.0000
  O  Te15      1.0  0.48981  0.86737  0.16267  1.0000
  O  Te16      1.0  0.64914  0.09922  0.18243  1.0000
  Mg  Mg7       1.0  0.42658  0.96232  0.17121  1.0000
  Mg  Mg8       1.0  0.67676  0.32616  0.20221  1.0000
  C  Sn17      1.0  0.31557  0.56619  0.62893  1.0000
  C   C157      1.0  0.29279  0.55564  0.57500  1.0000
  C  Sn18      1.0  0.30108  0.67884  0.53681  1.0000
  C  Sn19      1.0  0.33283  0.81539  0.55284  1.0000
  C   C158      1.0  0.35559  0.82588  0.60674  1.0000
  C  Sn20      1.0  0.34732  0.70274  0.64496  1.0000
  O  Te17      1.0  0.30675  0.44160  0.66642  1.0000
  O  Te18      1.0  0.27788  0.66561  0.48314  1.0000
  O  Te19      1.0  0.34163  0.94003  0.51530  1.0000
  O  Te20      1.0  0.37050  0.71591  0.69859  1.0000
  Mg  Mg9       1.0  0.30155  0.86663  0.44700  1.0000
  Mg  Mg10      1.0  0.34689  0.51493  0.73476  1.0000
  C  Sn21      1.0  0.01747  0.57115  0.15455  1.0000
  C   C159      1.0  0.06649  0.54295  0.15718  1.0000
  C  Sn22      1.0  0.09903  0.63169  0.19481  1.0000
  C  Sn23      1.0  0.08224  0.75104  0.23058  1.0000
  C   C160      1.0  0.03325  0.77918  0.22794  1.0000
  C  Sn24      1.0  0.00068  0.69051  0.19032  1.0000
  O  Te21      1.0  0.98558  0.48100  0.11662  1.0000
  O  Te22      1.0  0.14787  0.60137  0.19666  1.0000
  O  Te23      1.0  0.11418  0.84122  0.26852  1.0000
  O  Te24      1.0  0.95187  0.72076  0.18847  1.0000
  Mg  Mg11      1.0  0.17726  0.75555  0.25541  1.0000
  Mg  Mg12      1.0  0.92244  0.56659  0.12976  1.0000
  C  Sn25      1.0  0.60934  0.42172  0.52780  1.0000
  C   C161      1.0  0.61676  0.33515  0.57763  1.0000
  C  Sn26      1.0  0.65446  0.38083  0.61791  1.0000
  C  Sn27      1.0  0.68537  0.51594  0.60821  1.0000
  C   C162      1.0  0.67794  0.60244  0.55842  1.0000
  C  Sn28      1.0  0.64026  0.55682  0.51810  1.0000
  O  Te25      1.0  0.57143  0.37390  0.48811  1.0000
  O  Te26      1.0  0.66117  0.29237  0.66739  1.0000
  O  Te27      1.0  0.72331  0.56371  0.64795  1.0000
  O  Te28      1.0  0.63353  0.64522  0.46865  1.0000
  Mg  Mg13      1.0  0.71780  0.40486  0.70876  1.0000
  Mg  Mg14      1.0  0.57690  0.53291  0.42727  1.0000
  C  Sn29      1.0  0.68557  0.55745  0.87478  1.0000
  C   C163      1.0  0.70723  0.54650  0.92913  1.0000
  C  Sn30      1.0  0.69850  0.67040  0.96694  1.0000
  C  Sn31      1.0  0.66744  0.80807  0.95008  1.0000
  C   C164      1.0  0.64580  0.81896  0.89575  1.0000
  C  Sn32      1.0  0.65451  0.69513  0.85791  1.0000
  O  Te29      1.0  0.69481  0.43215  0.83768  1.0000
  O  Te30      1.0  0.59312  0.65502  0.02105  1.0000
  O  Te31      1.0  0.65822  0.93343  0.98723  1.0000
  O  Te32      1.0  0.63245  0.70870  0.80383  1.0000
  Mg  Mg15      1.0  0.56927  0.85733  0.05639  1.0000
  Mg  Mg16      1.0  0.65625  0.50643  0.76847  1.0000
  C  Sn33      1.0  0.52787  0.59319  0.34812  1.0000
  C   C165      1.0  0.52363  0.55760  0.29230  1.0000
  C  Sn34      1.0  0.55688  0.62224  0.26113  1.0000
  C  Sn35      1.0  0.59519  0.72450  0.28628  1.0000
  C   C166      1.0  0.59941  0.76002  0.34207  1.0000
  C  Sn36      1.0  0.56617  0.69545  0.37328  1.0000
  O  Te33      1.0  0.49422  0.52722  0.37849  1.0000
  O  Te34      1.0  0.55189  0.58497  0.20538  1.0000
  O  Te35      1.0  0.62885  0.79048  0.25586  1.0000
  O  Te36      1.0  0.57116  0.73265  0.42899  1.0000
  Mg  Mg17      1.0  0.60681  0.70414  0.18130  1.0000
  Mg  Mg18      1.0  0.51627  0.61348  0.45312  1.0000
  C  Sn37      1.0  0.80669  0.32231  0.55131  1.0000
  C   C167      1.0  0.83080  0.32926  0.60472  1.0000
  C  Sn38      1.0  0.84416  0.17956  0.63332  1.0000
  C  Sn39      1.0  0.83322  0.01956  0.60801  1.0000
  C   C168      1.0  0.80913  0.01266  0.55463  1.0000
  C  Sn40      1.0  0.79575  0.16231  0.52600  1.0000
  O  Te37      1.0  0.79368  0.47359  0.52348  1.0000
  O  Te38      1.0  0.86822  0.18974  0.68668  1.0000
  O  Te39      1.0  0.84635  0.86823  0.63589  1.0000
  O  Te40      1.0  0.77171  0.15219  0.47267  1.0000
  Mg  Mg19      1.0  0.87858  0.94810  0.70778  1.0000
  Mg  Mg20      1.0  0.76145  0.39373  0.45153  1.0000
  C  Sn41      1.0  0.88943  0.92298  0.96952  1.0000
  C   C169      1.0  0.88195  0.83263  0.92037  1.0000
  C  Sn42      1.0  0.84371  0.87359  0.88019  1.0000
  C  Sn43      1.0  0.81221  0.00773  0.88931  1.0000
  C   C170      1.0  0.81970  0.09802  0.93844  1.0000
  C  Sn44      1.0  0.85793  0.05713  0.97865  1.0000
  O  Te41      1.0  0.80044  0.87811  0.00911  1.0000
  O  Te42      1.0  0.83694  0.78141  0.83138  1.0000
  O  Te43      1.0  0.77373  0.05081  0.84967  1.0000
  O  Te44      1.0  0.73725  0.14750  0.02742  1.0000
  Mg  Mg21      1.0  0.77948  0.88811  0.78988  1.0000
  Mg  Mg22      1.0  0.79472  0.04098  0.06894  1.0000
  C  Sn45      1.0  0.33205  0.20230  0.04265  1.0000
  C   C171      1.0  0.35232  0.18993  0.09747  1.0000
  C  Sn46      1.0  0.34295  0.31377  0.13500  1.0000
  C  Sn47      1.0  0.31267  0.45282  0.11738  1.0000
  C   C172      1.0  0.29241  0.46513  0.06259  1.0000
  C  Sn48      1.0  0.30176  0.34136  0.02502  1.0000
  O  Te45      1.0  0.34190  0.07702  0.00584  1.0000
  O  Te46      1.0  0.36364  0.29869  0.18959  1.0000
  O  Te47      1.0  0.30282  0.57814  0.15424  1.0000
  O  Te48      1.0  0.40853  0.35811  0.97047  1.0000
  Mg  Mg23      1.0  0.33941  0.50155  0.22427  1.0000
  Mg  Mg24      1.0  0.43272  0.15529  0.93576  1.0000
  C  Sn49      1.0  0.17266  0.86253  0.36279  1.0000
  C   C173      1.0  0.16576  0.70005  0.38320  1.0000
  C  Sn50      1.0  0.17306  0.67022  0.43943  1.0000
  C  Sn51      1.0  0.18753  0.80565  0.47603  1.0000
  C   C174      1.0  0.19442  0.96802  0.45562  1.0000
  C  Sn52      1.0  0.18714  0.99796  0.39939  1.0000
  O  Te49      1.0  0.16515  0.88943  0.30641  1.0000
  O  Te50      1.0  0.16595  0.50669  0.45887  1.0000
  O  Te51      1.0  0.19504  0.77861  0.53244  1.0000
  O  Te52      1.0  0.19414  0.16138  0.37995  1.0000
  Mg  Mg25      1.0  0.18071  0.53362  0.53910  1.0000
  Mg  Mg26      1.0  0.17937  0.13462  0.29974  1.0000
  C  Sn53      1.0  0.49543  0.09133  0.30572  1.0000
  C   C175      1.0  0.47504  0.23198  0.27664  1.0000
  C  Sn54      1.0  0.42761  0.27657  0.27885  1.0000
  C  Sn55      1.0  0.39997  0.17860  0.31082  1.0000
  C   C176      1.0  0.42036  0.03806  0.33988  1.0000
  C  Sn56      1.0  0.46789  0.99336  0.33769  1.0000
  O  Te53      1.0  0.54292  0.04909  0.30292  1.0000
  O  Te54      1.0  0.40800  0.41770  0.24940  1.0000
  O  Te55      1.0  0.35245  0.22096  0.31360  1.0000
  O  Te56      1.0  0.48749  0.85235  0.36712  1.0000
  Mg  Mg27      1.0  0.34179  0.42438  0.26627  1.0000
  Mg  Mg28      1.0  0.55371  0.84560  0.35031  1.0000
  C  Sn57      1.0  0.12808  0.01320  0.01851  1.0000
  C   C177      1.0  0.17426  0.96491  0.04142  1.0000
  C  Sn58      1.0  0.19050  0.99490  0.09664  1.0000
  C  Sn59      1.0  0.15994  0.07474  0.12967  1.0000
  C   C178      1.0  0.11387  0.12295  0.10676  1.0000
  C  Sn60      1.0  0.09761  0.09303  0.05154  1.0000
  O  Te57      1.0  0.24014  0.98370  0.96321  1.0000
  O  Te58      1.0  0.23673  0.94554  0.11861  1.0000
  O  Te59      1.0  0.17546  0.10596  0.18500  1.0000
  O  Te60      1.0  0.05141  0.14232  0.02957  1.0000
  Mg  Mg29      1.0  0.24138  0.01532  0.19609  1.0000
  Mg  Mg30      1.0  0.17407  0.07427  0.95211  1.0000
  C  Sn61      1.0  0.66798  0.19888  0.45334  1.0000
  C   C179      1.0  0.64668  0.18989  0.39880  1.0000
  C  Sn62      1.0  0.65505  0.31685  0.36187  1.0000
  C  Sn63      1.0  0.68539  0.45563  0.37980  1.0000
  C   C180      1.0  0.70668  0.46455  0.43430  1.0000
  C  Sn64      1.0  0.69832  0.33766  0.47127  1.0000
  O  Te61      1.0  0.65911  0.07052  0.48955  1.0000
  O  Te62      1.0  0.63334  0.30512  0.30756  1.0000
  O  Te63      1.0  0.69425  0.58403  0.34353  1.0000
  O  Te64      1.0  0.72002  0.34932  0.52554  1.0000
  Mg  Mg31      1.0  0.65647  0.51140  0.27369  1.0000
  Mg  Mg32      1.0  0.69694  0.14309  0.55944  1.0000
