data_image0
_chemical_formula_structural       H40C52N16O8C2Sn2C2HTe2HMgC2Sn2C2HTe2HMgC2Sn2C2HTe2HMgC2Sn2C2HTe2HMgC2Sn2C2HTe2HMgC2Sn2C2HTe2HMgC2Sn2C2HTe2HMgC2Sn2C2HTe2HMgC2Sn2C2HTe2HMgC2Sn2C2HTe2HMgC2Sn2C2HTe2HMgC2Sn2C2HTe2HMgC2Sn2C2HTe2HMgC2Sn2C2HTe2HMgC2Sn2C2HTe2HMgC2Sn2C2HTe2HMgC2Sn2C2HTe2HMgC2Sn2C2HTe2HMgC2Sn2C2HTe2HMgC2Sn2C2HTe2HMgC2Sn2C2HTe2HMgC2Sn2C2HTe2HMgC2Sn2C2HTe2HMgC2Sn2C2HTe2HMgC2Sn2C2HTe2HMgC2Sn2C2HTe2HMgC2Sn2C2HTe2HMgC2Sn2C2HTe2HMgC2Sn2C2HTe2HMgC2Sn2C2HTe2HMgC2Sn2C2HTe2HMgC2Sn2C2HTe2HMg
_chemical_formula_sum              "H104 C180 N16 O8 Sn64 Te64 Mg32"
_cell_length_a       28.3122
_cell_length_b       7.85822
_cell_length_c       24.7507
_cell_angle_alpha    90.0289
_cell_angle_beta     98.3831
_cell_angle_gamma    90.019

_symmetry_space_group_name_H-M    'P1'
_space_group_IT_number       1

loop_
  _space_group_symop_operation_xyz
  'x, y, z'

loop_
  _atom_site_type_symbol
  _atom_site_label
  _atom_site_symmetry_multiplicity
  _atom_site_fract_x
  _atom_site_fract_y
  _atom_site_fract_z
  _atom_site_occupancy
  H   H1        1.0  0.05164  0.30515  0.08911  1.0000
  H   H2        1.0  0.95114  0.29815  0.41374  1.0000
  H   H3        1.0  0.54811  0.79635  0.08452  1.0000
  H   H4        1.0  0.44949  0.80683  0.41507  1.0000
  H   H5        1.0  0.94944  0.69683  0.91155  1.0000
  H   H6        1.0  0.04722  0.70668  0.58626  1.0000
  H   H7        1.0  0.45170  0.20570  0.91404  1.0000
  H   H8        1.0  0.55004  0.19501  0.58608  1.0000
  H   H9        1.0  0.38673  0.06849  0.18329  1.0000
  H   H10       1.0  0.61120  0.07232  0.31257  1.0000
  H   H11       1.0  0.88970  0.56851  0.18185  1.0000
  H   H12       1.0  0.11244  0.57617  0.31923  1.0000
  H   H13       1.0  0.61232  0.92590  0.81690  1.0000
  H   H14       1.0  0.39001  0.93294  0.68481  1.0000
  H   H15       1.0  0.11199  0.42883  0.81698  1.0000
  H   H16       1.0  0.88896  0.42257  0.68178  1.0000
  H   H17       1.0  0.31626  0.00984  0.36392  1.0000
  H   H18       1.0  0.69163  0.97664  0.14293  1.0000
  H   H19       1.0  0.81180  0.49763  0.35648  1.0000
  H   H20       1.0  0.18591  0.49408  0.13859  1.0000
  H   H21       1.0  0.68470  0.99215  0.63751  1.0000
  H   H22       1.0  0.31371  0.00353  0.86022  1.0000
  H   H23       1.0  0.16402  0.45744  0.58209  1.0000
  H   H24       1.0  0.81341  0.49073  0.86069  1.0000
  H   H25       1.0  0.30202  0.91608  0.42546  1.0000
  H   H26       1.0  0.71280  0.88718  0.08438  1.0000
  H   H27       1.0  0.79573  0.40822  0.41779  1.0000
  H   H28       1.0  0.20654  0.40230  0.07998  1.0000
  H   H29       1.0  0.71215  0.09985  0.58616  1.0000
  H   H30       1.0  0.29572  0.09559  0.92022  1.0000
  H   H31       1.0  0.19310  0.50768  0.64914  1.0000
  H   H32       1.0  0.79450  0.58652  0.91956  1.0000
  H   H33       1.0  0.34282  0.09262  0.42839  1.0000
  H   H34       1.0  0.66265  0.03035  0.07614  1.0000
  H   H35       1.0  0.83961  0.57487  0.42127  1.0000
  H   H36       1.0  0.16065  0.56225  0.07166  1.0000
  H   H37       1.0  0.66401  0.95247  0.56696  1.0000
  H   H38       1.0  0.34063  0.93209  0.92604  1.0000
  H   H39       1.0  0.21320  0.60514  0.59120  1.0000
  H   H40       1.0  0.83840  0.41965  0.92739  1.0000
  C   C1        1.0  0.22434  0.89002  0.97249  1.0000
  C   C2        1.0  0.77567  0.88452  0.52599  1.0000
  C   C3        1.0  0.72265  0.38088  0.97245  1.0000
  C   C4        1.0  0.27644  0.39081  0.53178  1.0000
  C   C5        1.0  0.77446  0.10323  0.02755  1.0000
  C   C6        1.0  0.22440  0.11500  0.47610  1.0000
  C   C7        1.0  0.27604  0.61270  0.02810  1.0000
  C   C8        1.0  0.72344  0.60994  0.46949  1.0000
  C   C9        1.0  0.25973  0.80138  0.94922  1.0000
  C   C10       1.0  0.74041  0.79521  0.54925  1.0000
  C   C11       1.0  0.75775  0.29201  0.94883  1.0000
  C   C12       1.0  0.24118  0.30267  0.55545  1.0000
  C   C13       1.0  0.73926  0.19157  0.05124  1.0000
  C   C14       1.0  0.25996  0.20232  0.45282  1.0000
  C   C15       1.0  0.24059  0.70091  0.05132  1.0000
  C   C16       1.0  0.75866  0.69935  0.44619  1.0000
  C   C17       1.0  0.28575  0.66597  0.97617  1.0000
  C   C18       1.0  0.71417  0.66055  0.52188  1.0000
  C   C19       1.0  0.78379  0.15605  0.97545  1.0000
  C   C20       1.0  0.21469  0.16851  0.52811  1.0000
  C   C21       1.0  0.71307  0.32722  0.02449  1.0000
  C   C22       1.0  0.28593  0.33824  0.47968  1.0000
  C   C23       1.0  0.21472  0.83705  0.02454  1.0000
  C   C24       1.0  0.78505  0.83351  0.47363  1.0000
  C   C25       1.0  0.08660  0.28350  0.11404  1.0000
  C   C26       1.0  0.91606  0.27980  0.38868  1.0000
  C   C27       1.0  0.58326  0.77752  0.10939  1.0000
  C   C28       1.0  0.41442  0.78521  0.39033  1.0000
  C   C29       1.0  0.91388  0.71314  0.88740  1.0000
  C   C30       1.0  0.08257  0.72347  0.61087  1.0000
  C   C31       1.0  0.41633  0.22255  0.88952  1.0000
  C   C32       1.0  0.58517  0.21598  0.61078  1.0000
  C   C33       1.0  0.37283  0.03996  0.14033  1.0000
  C   C34       1.0  0.62554  0.04252  0.35530  1.0000
  C   C35       1.0  0.87467  0.53712  0.13945  1.0000
  C   C36       1.0  0.12666  0.54609  0.36198  1.0000
  C   C37       1.0  0.62623  0.95467  0.85984  1.0000
  C   C38       1.0  0.37544  0.96149  0.64206  1.0000
  C   C39       1.0  0.12661  0.45949  0.85957  1.0000
  C   C40       1.0  0.87471  0.45219  0.63902  1.0000
  C   C41       1.0  0.31031  0.03570  0.40584  1.0000
  C   C42       1.0  0.69715  0.00060  0.10074  1.0000
  C   C43       1.0  0.80624  0.52540  0.39842  1.0000
  C   C44       1.0  0.19349  0.51921  0.09720  1.0000
  C   C45       1.0  0.69562  0.98045  0.59701  1.0000
  C   C46       1.0  0.30736  0.97803  0.90203  1.0000
  C   C47       1.0  0.19845  0.48848  0.60664  1.0000
  C   C48       1.0  0.80592  0.46724  0.90220  1.0000
  C   C49       1.0  0.49908  0.40164  0.24834  1.0000
  C   C50       1.0  0.00135  0.90710  0.25159  1.0000
  C   C51       1.0  0.50103  0.59674  0.75159  1.0000
  C   C52       1.0  0.00022  0.09225  0.74850  1.0000
  N   N1        1.0  0.61665  0.89895  0.37738  1.0000
  N   N2        1.0  0.38216  0.89720  0.11796  1.0000
  N   N3        1.0  0.11778  0.40173  0.38359  1.0000
  N   N4        1.0  0.88335  0.39249  0.11787  1.0000
  N   N5        1.0  0.38403  0.10501  0.61979  1.0000
  N   N6        1.0  0.61688  0.09769  0.88204  1.0000
  N   N7        1.0  0.88386  0.59574  0.61709  1.0000
  N   N8        1.0  0.11802  0.60413  0.88119  1.0000
  N   N9        1.0  0.90021  0.37786  0.34811  1.0000
  N   N10       1.0  0.10279  0.37925  0.15510  1.0000
  N   N11       1.0  0.39827  0.87994  0.34901  1.0000
  N   N12       1.0  0.59968  0.87712  0.14933  1.0000
  N   N13       1.0  0.09921  0.62199  0.65020  1.0000
  N   N14       1.0  0.89776  0.61399  0.84717  1.0000
  N   N15       1.0  0.60150  0.12039  0.65176  1.0000
  N   N16       1.0  0.40014  0.12284  0.84949  1.0000
  O   O1        1.0  0.27055  0.15211  0.40234  1.0000
  O   O2        1.0  0.72921  0.14412  0.10219  1.0000
  O   O3        1.0  0.76876  0.65142  0.39521  1.0000
  O   O4        1.0  0.22946  0.65080  0.10159  1.0000
  O   O5        1.0  0.72948  0.84187  0.59996  1.0000
  O   O6        1.0  0.27054  0.84962  0.89863  1.0000
  O   O7        1.0  0.23157  0.34845  0.60680  1.0000
  O   O8        1.0  0.76836  0.34144  0.89830  1.0000
  C   C53       1.0  0.91259  0.75379  0.28040  1.0000
  C   C54       1.0  0.96125  0.79229  0.28590  1.0000
  C  Sn1       1.0  0.99487  0.68127  0.31374  1.0000
  C  Sn2       1.0  0.97937  0.52895  0.33645  1.0000
  C   C55       1.0  0.93062  0.49153  0.33069  1.0000
  C   C56       1.0  0.89728  0.60355  0.30276  1.0000
  H   H41       1.0  0.88680  0.84040  0.25876  1.0000
  O  Te1       1.0  0.04334  0.72172  0.31888  1.0000
  O  Te2       1.0  0.01221  0.41571  0.36447  1.0000
  H   H42       1.0  0.85961  0.57365  0.29848  1.0000
  Mg  Mg1       1.0  0.07440  0.52699  0.36070  1.0000
  C   C57       1.0  0.09022  0.75723  0.22175  1.0000
  C   C58       1.0  0.04145  0.79281  0.21727  1.0000
  C  Sn3       1.0  0.00795  0.67887  0.19065  1.0000
  C  Sn4       1.0  0.02368  0.52655  0.16814  1.0000
  C   C59       1.0  0.07255  0.49206  0.17288  1.0000
  C   C60       1.0  0.10577  0.60699  0.19959  1.0000
  H   H43       1.0  0.11592  0.84609  0.24244  1.0000
  O  Te3       1.0  0.95936  0.71643  0.18652  1.0000
  O  Te4       1.0  0.99097  0.41043  0.14134  1.0000
  H   H44       1.0  0.14353  0.57935  0.20308  1.0000
  Mg  Mg2       1.0  0.92855  0.51839  0.14618  1.0000
  C   C61       1.0  0.39811  0.18730  0.29504  1.0000
  C   C62       1.0  0.41747  0.04105  0.32171  1.0000
  C  Sn5       1.0  0.46690  0.01792  0.33159  1.0000
  C  Sn6       1.0  0.49743  0.14380  0.31440  1.0000
  C   C63       1.0  0.47770  0.28972  0.28778  1.0000
  C   C64       1.0  0.42819  0.31155  0.27810  1.0000
  H   H45       1.0  0.35980  0.20425  0.28757  1.0000
  O  Te5       1.0  0.48575  0.87102  0.35827  1.0000
  O  Te6       1.0  0.54696  0.12394  0.32376  1.0000
  H   H46       1.0  0.41321  0.42485  0.25748  1.0000
  Mg  Mg3       1.0  0.55556  0.90184  0.36167  1.0000
  C   C65       1.0  0.49929  0.10986  0.17586  1.0000
  C   C66       1.0  0.51899  0.24578  0.20797  1.0000
  C  Sn7       1.0  0.56838  0.27050  0.21699  1.0000
  C  Sn8       1.0  0.59852  0.15685  0.19337  1.0000
  C   C67       1.0  0.57846  0.02132  0.16128  1.0000
  C   C68       1.0  0.52908  0.99774  0.15253  1.0000
  H   H47       1.0  0.46101  0.09165  0.16907  1.0000
  O  Te7       1.0  0.58747  0.40691  0.24920  1.0000
  O  Te8       1.0  0.64801  0.17863  0.20171  1.0000
  H   H48       1.0  0.51384  0.89256  0.12764  1.0000
  Mg  Mg4       1.0  0.65707  0.38345  0.24871  1.0000
  C   C69       1.0  0.10049  0.31488  0.70378  1.0000
  C   C70       1.0  0.08036  0.44836  0.67091  1.0000
  C  Sn9       1.0  0.03083  0.46839  0.66066  1.0000
  C  Sn10      1.0  0.00099  0.35245  0.68381  1.0000
  C   C71       1.0  0.02148  0.21940  0.71667  1.0000
  C   C72       1.0  0.07109  0.20051  0.72665  1.0000
  H   H49       1.0  0.13887  0.30031  0.71153  1.0000
  O  Te9       1.0  0.01131  0.60242  0.62771  1.0000
  O  Te10      1.0  0.95138  0.36954  0.67425  1.0000
  H   H50       1.0  0.08666  0.09721  0.75213  1.0000
  Mg  Mg5       1.0  0.94170  0.57260  0.62660  1.0000
  C   C73       1.0  0.99898  0.38991  0.81825  1.0000
  C   C74       1.0  0.98025  0.24053  0.79296  1.0000
  C  Sn11      1.0  0.93095  0.21348  0.78396  1.0000
  C  Sn12      1.0  0.89992  0.33855  0.80060  1.0000
  C   C75       1.0  0.91901  0.48761  0.82583  1.0000
  C   C76       1.0  0.96840  0.51336  0.83466  1.0000
  H   H51       1.0  0.03719  0.40988  0.82506  1.0000
  O  Te11      1.0  0.91283  0.06350  0.75866  1.0000
  O  Te12      1.0  0.85051  0.31480  0.79208  1.0000
  H   H52       1.0  0.98289  0.62907  0.85421  1.0000
  Mg  Mg6       1.0  0.84294  0.08951  0.75598  1.0000
  C   C77       1.0  0.51316  0.95793  0.66512  1.0000
  C   C78       1.0  0.56193  0.99243  0.66847  1.0000
  C  Sn13      1.0  0.59556  0.87873  0.69488  1.0000
  C  Sn14      1.0  0.57998  0.72777  0.71831  1.0000
  C   C79       1.0  0.53111  0.69437  0.71471  1.0000
  C   C80       1.0  0.49776  0.80904  0.68820  1.0000
  H   H53       1.0  0.48726  0.04660  0.64459  1.0000
  O  Te13      1.0  0.64414  0.91518  0.69787  1.0000
  O  Te14      1.0  0.61283  0.61192  0.74492  1.0000
  H   H54       1.0  0.46001  0.78225  0.68559  1.0000
  Mg  Mg7       1.0  0.67518  0.71804  0.73839  1.0000
  C   C81       1.0  0.39994  0.81793  0.79485  1.0000
  C   C82       1.0  0.41960  0.95137  0.82813  1.0000
  C  Sn15      1.0  0.46909  0.97207  0.83915  1.0000
  C  Sn16      1.0  0.49935  0.85687  0.81635  1.0000
  C   C83       1.0  0.47933  0.72386  0.78308  1.0000
  C   C84       1.0  0.42977  0.70429  0.77234  1.0000
  H   H55       1.0  0.36159  0.80283  0.78651  1.0000
  O  Te15      1.0  0.48805  0.10604  0.87250  1.0000
  O  Te16      1.0  0.54893  0.87465  0.82668  1.0000
  H   H56       1.0  0.41455  0.60103  0.74654  1.0000
  Mg  Mg8       1.0  0.55780  0.07733  0.87464  1.0000
  C   C85       1.0  0.53927  0.55518  0.35468  1.0000
  C   C86       1.0  0.53064  0.52851  0.29827  1.0000
  C  Sn17      1.0  0.55465  0.62529  0.26351  1.0000
  C  Sn18      1.0  0.58792  0.75097  0.28575  1.0000
  C   C87       1.0  0.59633  0.77659  0.34224  1.0000
  C   C88       1.0  0.57209  0.67907  0.37665  1.0000
  H   H57       1.0  0.52054  0.47967  0.38131  1.0000
  O  Te17      1.0  0.54559  0.59703  0.20725  1.0000
  O  Te18      1.0  0.61243  0.84945  0.25194  1.0000
  H   H58       1.0  0.57880  0.69967  0.42033  1.0000
  Mg  Mg9       1.0  0.58786  0.76355  0.17795  1.0000
  C   C89       1.0  0.46034  0.55603  0.14193  1.0000
  C   C90       1.0  0.46771  0.52782  0.19827  1.0000
  C  Sn19      1.0  0.44259  0.62268  0.23244  1.0000
  C  Sn20      1.0  0.40948  0.74799  0.20965  1.0000
  C   C91       1.0  0.40234  0.77516  0.15323  1.0000
  C   C92       1.0  0.42768  0.67955  0.11942  1.0000
  H   H59       1.0  0.47993  0.48199  0.11576  1.0000
  O  Te19      1.0  0.45039  0.59291  0.28865  1.0000
  O  Te20      1.0  0.38388  0.84457  0.24286  1.0000
  H   H60       1.0  0.42195  0.70134  0.07579  1.0000
  Mg  Mg10      1.0  0.40694  0.75709  0.31702  1.0000
  C   C93       1.0  0.03921  0.06184  0.35837  1.0000
  C   C94       1.0  0.03206  0.03467  0.30196  1.0000
  C  Sn21      1.0  0.05748  0.12982  0.26819  1.0000
  C  Sn22      1.0  0.09068  0.25436  0.29143  1.0000
  C   C95       1.0  0.09760  0.28049  0.34791  1.0000
  C   C96       1.0  0.07196  0.18460  0.38133  1.0000
  H   H61       1.0  0.01948  0.98759  0.38423  1.0000
  O  Te21      1.0  0.04989  0.10109  0.21191  1.0000
  O  Te22      1.0  0.11658  0.35121  0.25862  1.0000
  H   H62       1.0  0.07753  0.20559  0.42501  1.0000
  Mg  Mg11      1.0  0.09372  0.26524  0.18418  1.0000
  C   C97       1.0  0.91366  0.23744  0.22138  1.0000
  C   C98       1.0  0.91056  0.27550  0.16583  1.0000
  C  Sn23      1.0  0.93651  0.18074  0.13248  1.0000
  C  Sn24      1.0  0.96607  0.04541  0.15529  1.0000
  C   C99       1.0  0.96889  0.00827  0.21090  1.0000
  C   C100      1.0  0.94279  0.10394  0.24390  1.0000
  H   H63       1.0  0.89344  0.31139  0.24691  1.0000
  O  Te23      1.0  0.93302  0.22051  0.07707  1.0000
  O  Te24      1.0  0.99247  0.94861  0.12289  1.0000
  H   H64       1.0  0.94517  0.07437  0.28691  1.0000
  Mg  Mg12      1.0  0.97579  0.05189  0.04963  1.0000
  C   C101      1.0  0.44727  0.37828  0.62805  1.0000
  C   C102      1.0  0.41953  0.24840  0.64583  1.0000
  C  Sn25      1.0  0.41409  0.23635  0.70090  1.0000
  C  Sn26      1.0  0.43688  0.35678  0.73878  1.0000
  C   C103      1.0  0.46453  0.48632  0.72058  1.0000
  C   C104      1.0  0.46975  0.49716  0.66538  1.0000
  H   H65       1.0  0.45129  0.38673  0.58534  1.0000
  O  Te25      1.0  0.38626  0.10575  0.71797  1.0000
  O  Te26      1.0  0.43203  0.34775  0.79405  1.0000
  H   H66       1.0  0.49120  0.59780  0.65162  1.0000
  Mg  Mg13      1.0  0.39042  0.14666  0.79750  1.0000
  C   C105      1.0  0.57259  0.32829  0.76344  1.0000
  C   C106      1.0  0.53864  0.43821  0.77998  1.0000
  C  Sn27      1.0  0.53241  0.44666  0.83489  1.0000
  C  Sn28      1.0  0.56076  0.34304  0.87386  1.0000
  C   C107      1.0  0.59466  0.23358  0.85689  1.0000
  C   C108      1.0  0.60059  0.22609  0.80185  1.0000
  H   H67       1.0  0.57720  0.32255  0.72085  1.0000
  O  Te27      1.0  0.49831  0.55713  0.85072  1.0000
  O  Te28      1.0  0.55529  0.34900  0.92900  1.0000
  H   H68       1.0  0.62690  0.14106  0.78905  1.0000
  Mg  Mg14      1.0  0.50410  0.51980  0.93055  1.0000
  C   C109      1.0  0.96392  0.93114  0.64230  1.0000
  C   C110      1.0  0.96580  0.97507  0.69729  1.0000
  C  Sn29      1.0  0.94022  0.88085  0.73114  1.0000
  C  Sn30      1.0  0.91229  0.74007  0.70943  1.0000
  C   C111      1.0  0.91067  0.69708  0.65437  1.0000
  C   C112      1.0  0.93639  0.79226  0.62085  1.0000
  H   H69       1.0  0.98375  0.00472  0.61637  1.0000
  O  Te29      1.0  0.94248  0.92652  0.78598  1.0000
  O  Te30      1.0  0.88638  0.64368  0.74235  1.0000
  H   H70       1.0  0.93496  0.75815  0.57828  1.0000
  Mg  Mg15      1.0  0.90086  0.75604  0.81449  1.0000
  C   C113      1.0  0.08586  0.75489  0.77746  1.0000
  C   C114      1.0  0.09495  0.73447  0.83411  1.0000
  C  Sn31      1.0  0.07017  0.83185  0.86799  1.0000
  C  Sn32      1.0  0.03567  0.95174  0.84461  1.0000
  C   C115      1.0  0.02682  0.97112  0.78788  1.0000
  C   C116      1.0  0.05182  0.87307  0.75436  1.0000
  H   H71       1.0  0.10519  0.67896  0.75152  1.0000
  O  Te31      1.0  0.07970  0.80989  0.92451  1.0000
  O  Te32      1.0  0.01029  0.05067  0.87752  1.0000
  H   H72       1.0  0.04476  0.88882  0.71050  1.0000
  Mg  Mg16      1.0  0.03602  0.97445  0.95229  1.0000
  C   C117      1.0  0.32564  0.45453  0.12506  1.0000
  C   C118      1.0  0.30591  0.47112  0.07018  1.0000
  C  Sn33      1.0  0.30425  0.33141  0.03502  1.0000
  C  Sn34      1.0  0.32270  0.17228  0.05530  1.0000
  C   C119      1.0  0.34234  0.15696  0.11028  1.0000
  C   C120      1.0  0.34383  0.29761  0.14510  1.0000
  H   H73       1.0  0.32678  0.56332  0.15201  1.0000
  O  Te33      1.0  0.41188  0.35196  0.98031  1.0000
  O  Te34      1.0  0.32148  0.03055  0.02106  1.0000
  H   H74       1.0  0.35909  0.28470  0.18759  1.0000
  Mg  Mg17      1.0  0.41834  0.12165  0.94967  1.0000
  C   C121      1.0  0.68279  0.17969  0.45180  1.0000
  C   C122      1.0  0.65703  0.17196  0.39921  1.0000
  C  Sn35      1.0  0.65394  0.31476  0.36527  1.0000
  C  Sn36      1.0  0.67713  0.46794  0.38444  1.0000
  C   C123      1.0  0.70285  0.47432  0.43711  1.0000
  C   C124      1.0  0.70569  0.33069  0.47073  1.0000
  H   H75       1.0  0.68501  0.06854  0.47780  1.0000
  O  Te35      1.0  0.62804  0.30487  0.31285  1.0000
  O  Te36      1.0  0.67465  0.61253  0.35137  1.0000
  H   H76       1.0  0.72566  0.33668  0.51143  1.0000
  Mg  Mg18      1.0  0.63506  0.53596  0.28309  1.0000
  C   C125      1.0  0.81646  0.67417  0.04360  1.0000
  C   C126      1.0  0.84275  0.66598  0.09589  1.0000
  C  Sn37      1.0  0.84568  0.80771  0.13032  1.0000
  C  Sn38      1.0  0.82178  0.96028  0.11195  1.0000
  C   C127      1.0  0.79554  0.96714  0.05957  1.0000
  C   C128      1.0  0.79286  0.82457  0.02545  1.0000
  H   H77       1.0  0.81436  0.56384  0.01720  1.0000
  O  Te37      1.0  0.87212  0.79737  0.18244  1.0000
  O  Te38      1.0  0.82400  0.10380  0.14553  1.0000
  H   H78       1.0  0.89993  0.83266  0.98498  1.0000
  Mg  Mg19      1.0  0.86451  0.02698  0.21312  1.0000
  C   C129      1.0  0.19343  0.76277  0.47417  1.0000
  C   C130      1.0  0.20137  0.92547  0.45457  1.0000
  C  Sn39      1.0  0.18299  0.97024  0.40100  1.0000
  C  Sn40      1.0  0.15616  0.84962  0.36652  1.0000
  C   C131      1.0  0.14839  0.68722  0.38653  1.0000
  C   C132      1.0  0.16696  0.64375  0.44020  1.0000
  H   H79       1.0  0.20778  0.72915  0.51570  1.0000
  O  Te39      1.0  0.19118  0.13333  0.38206  1.0000
  O  Te40      1.0  0.13737  0.89103  0.31281  1.0000
  H   H80       1.0  0.16079  0.51780  0.45538  1.0000
  Mg  Mg20      1.0  0.15820  0.12942  0.30577  1.0000
  C   C133      1.0  0.69396  0.73533  0.97086  1.0000
  C   C134      1.0  0.69614  0.56730  0.95287  1.0000
  C  Sn41      1.0  0.67792  0.52436  0.89907  1.0000
  C  Sn42      1.0  0.65717  0.65229  0.86270  1.0000
  C   C135      1.0  0.65519  0.82004  0.88108  1.0000
  C   C136      1.0  0.67352  0.86160  0.93501  1.0000
  H   H81       1.0  0.58071  0.76577  0.01257  1.0000
  O  Te41      1.0  0.68037  0.35585  0.88177  1.0000
  O  Te42      1.0  0.63871  0.61289  0.80872  1.0000
  H   H82       1.0  0.67186  0.99172  0.94891  1.0000
  Mg  Mg21      1.0  0.65034  0.36516  0.80437  1.0000
  C   C137      1.0  0.33010  0.54521  0.62697  1.0000
  C   C138      1.0  0.30296  0.53657  0.57515  1.0000
  C  Sn43      1.0  0.30006  0.67713  0.54028  1.0000
  C  Sn44      1.0  0.32485  0.82897  0.55772  1.0000
  C   C139      1.0  0.35194  0.83629  0.60963  1.0000
  C   C140      1.0  0.35458  0.69490  0.64420  1.0000
  H   H83       1.0  0.33217  0.43580  0.65371  1.0000
  O  Te43      1.0  0.27276  0.66635  0.48864  1.0000
  O  Te44      1.0  0.32258  0.97132  0.52369  1.0000
  H   H84       1.0  0.37562  0.70159  0.68431  1.0000
  Mg  Mg22      1.0  0.28071  0.89430  0.45705  1.0000
  C   C141      1.0  0.16142  0.12187  0.86117  1.0000
  C   C142      1.0  0.15161  0.28131  0.88196  1.0000
  C  Sn45      1.0  0.16953  0.32438  0.93583  1.0000
  C  Sn46      1.0  0.19779  0.20537  0.96941  1.0000
  C   C143      1.0  0.20743  0.04624  0.94821  1.0000
  C   C144      1.0  0.18931  0.00444  0.89425  1.0000
  H   H85       1.0  0.14742  0.08956  0.81941  1.0000
  O  Te45      1.0  0.15937  0.48420  0.95596  1.0000
  O  Te46      1.0  0.08872  0.24339  0.02339  1.0000
  H   H86       1.0  0.19703  0.88103  0.87816  1.0000
  Mg  Mg23      1.0  0.06502  0.47734  0.03218  1.0000
  C   C145      1.0  0.80450  0.23845  0.52867  1.0000
  C   C146      1.0  0.80275  0.06956  0.54593  1.0000
  C  Sn47      1.0  0.82243  0.02410  0.59902  1.0000
  C  Sn48      1.0  0.84422  0.15034  0.63543  1.0000
  C   C147      1.0  0.84575  0.31897  0.61778  1.0000
  C   C148      1.0  0.82597  0.36306  0.56456  1.0000
  H   H87       1.0  0.78917  0.27259  0.48750  1.0000
  O  Te47      1.0  0.82048  0.85476  0.61560  1.0000
  O  Te48      1.0  0.86415  0.10841  0.68872  1.0000
  H   H88       1.0  0.82730  0.49385  0.55122  1.0000
  Mg  Mg24      1.0  0.85263  0.86044  0.69222  1.0000
  C   C149      1.0  0.10371  0.03662  0.03476  1.0000
  C   C150      1.0  0.10968  0.11818  0.08549  1.0000
  C  Sn49      1.0  0.15298  0.10561  0.12044  1.0000
  C  Sn50      1.0  0.19095  0.00956  0.10418  1.0000
  C   C151      1.0  0.18471  0.92854  0.05333  1.0000
  C   C152      1.0  0.14123  0.94192  0.01869  1.0000
  H   H89       1.0  0.07007  0.04704  0.00794  1.0000
  O  Te49      1.0  0.15834  0.18784  0.17099  1.0000
  O  Te50      1.0  0.23470  0.99494  0.13830  1.0000
  H   H90       1.0  0.26408  0.88059  0.97940  1.0000
  Mg  Mg25      1.0  0.22458  0.13012  0.20320  1.0000
  C   C153      1.0  0.88080  0.96176  0.47592  1.0000
  C   C154      1.0  0.83292  0.92918  0.45589  1.0000
  C  Sn51      1.0  0.81195  0.00035  0.40645  1.0000
  C  Sn52      1.0  0.83942  0.10601  0.37659  1.0000
  C   C155      1.0  0.88731  0.13772  0.39696  1.0000
  C   C156      1.0  0.90794  0.06590  0.44649  1.0000
  H   H91       1.0  0.89677  0.90612  0.51423  1.0000
  O  Te51      1.0  0.76406  0.96654  0.38703  1.0000
  O  Te52      1.0  0.81936  0.17872  0.32705  1.0000
  H   H92       1.0  0.94502  0.09106  0.46197  1.0000
  Mg  Mg26      1.0  0.75270  0.09498  0.31751  1.0000
  C   C157      1.0  0.66953  0.58071  0.12533  1.0000
  C   C158      1.0  0.62466  0.63687  0.10079  1.0000
  C  Sn53      1.0  0.60407  0.57026  0.05048  1.0000
  C  Sn54      1.0  0.62893  0.44509  0.02436  1.0000
  C   C159      1.0  0.67378  0.38967  0.04927  1.0000
  C   C160      1.0  0.69406  0.45722  0.09961  1.0000
  H   H93       1.0  0.68521  0.63290  0.16430  1.0000
  O  Te53      1.0  0.55922  0.62782  0.02651  1.0000
  O  Te54      1.0  0.73662  0.37807  0.97407  1.0000
  H   H94       1.0  0.72879  0.41364  0.11863  1.0000
  Mg  Mg27      1.0  0.67460  0.49742  0.95771  1.0000
  C   C161      1.0  0.30985  0.53979  0.39106  1.0000
  C   C162      1.0  0.31853  0.43586  0.43723  1.0000
  C  Sn55      1.0  0.36237  0.44364  0.47137  1.0000
  C  Sn56      1.0  0.39811  0.55775  0.45894  1.0000
  C   C163      1.0  0.38907  0.66128  0.41267  1.0000
  C   C164      1.0  0.34508  0.65243  0.37878  1.0000
  H   H95       1.0  0.27581  0.53302  0.36485  1.0000
  O  Te55      1.0  0.37045  0.33885  0.51733  1.0000
  O  Te56      1.0  0.44223  0.56816  0.49237  1.0000
  H   H96       1.0  0.33836  0.73300  0.34305  1.0000
  Mg  Mg28      1.0  0.43628  0.39936  0.55036  1.0000
  C   C165      1.0  0.82528  0.89461  0.87565  1.0000
  C   C166      1.0  0.87330  0.86202  0.89494  1.0000
  C  Sn57      1.0  0.89491  0.93372  0.94406  1.0000
  C  Sn58      1.0  0.86775  0.03991  0.97435  1.0000
  C   C167      1.0  0.81972  0.07163  0.95473  1.0000
  C   C168      1.0  0.79855  0.99928  0.90552  1.0000
  H   H97       1.0  0.80882  0.83856  0.83759  1.0000
  O  Te57      1.0  0.94293  0.89990  0.96272  1.0000
  O  Te58      1.0  0.76100  0.11141  0.02358  1.0000
  H   H98       1.0  0.76127  0.02444  0.89062  1.0000
  Mg  Mg29      1.0  0.82760  0.02743  0.03208  1.0000
  C   C169      1.0  0.16997  0.91111  0.62664  1.0000
  C   C170      1.0  0.12244  0.87694  0.60539  1.0000
  C  Sn59      1.0  0.10235  0.94642  0.55533  1.0000
  C  Sn60      1.0  0.13037  0.05197  0.52609  1.0000
  C   C171      1.0  0.17789  0.08529  0.54768  1.0000
  C   C172      1.0  0.19763  0.01515  0.59781  1.0000
  H   H99       1.0  0.18526  0.85678  0.66541  1.0000
  O  Te59      1.0  0.05480  0.91103  0.53470  1.0000
  O  Te60      1.0  0.11119  0.12301  0.47596  1.0000
  H   H100      1.0  0.23444  0.04154  0.61424  1.0000
  Mg  Mg30      1.0  0.04468  0.03751  0.46476  1.0000
  C   C173      1.0  0.31172  0.47090  0.88668  1.0000
  C   C174      1.0  0.31724  0.55635  0.93674  1.0000
  C  Sn61      1.0  0.36066  0.54932  0.97167  1.0000
  C  Sn62      1.0  0.39921  0.45493  0.95609  1.0000
  C   C175      1.0  0.39334  0.36999  0.90591  1.0000
  C   C176      1.0  0.34973  0.37783  0.87127  1.0000
  H   H101      1.0  0.27800  0.47703  0.85986  1.0000
  O  Te61      1.0  0.23810  0.63365  0.02155  1.0000
  O  Te62      1.0  0.44299  0.44583  0.99022  1.0000
  H   H102      1.0  0.34549  0.31174  0.83250  1.0000
  Mg  Mg31      1.0  0.30473  0.58297  0.05406  1.0000
  C   C177      1.0  0.60188  0.46889  0.53274  1.0000
  C   C178      1.0  0.61014  0.36757  0.57955  1.0000
  C  Sn63      1.0  0.65367  0.37730  0.61420  1.0000
  C  Sn64      1.0  0.68953  0.49073  0.60165  1.0000
  C   C179      1.0  0.68090  0.59164  0.55475  1.0000
  C   C180      1.0  0.63722  0.58085  0.52035  1.0000
  H   H103      1.0  0.56807  0.46062  0.50614  1.0000
  O  Te63      1.0  0.66134  0.27511  0.66079  1.0000
  O  Te64      1.0  0.73335  0.50304  0.63558  1.0000
  H   H104      1.0  0.63082  0.65940  0.48413  1.0000
  Mg  Mg32      1.0  0.72688  0.33752  0.69435  1.0000
