data_image0
_chemical_formula_structural       H44C60N13O9C2Sn2C2HTe2HMgC2Sn2C2HTe2HMgC2Sn2C2HTe2HMg
_chemical_formula_sum              "H50 C72 N13 O9 Sn6 Te6 Mg3"
_cell_length_a       43.0796
_cell_length_b       43.8455
_cell_length_c       4.33291
_cell_angle_alpha    98.1099
_cell_angle_beta     103.025
_cell_angle_gamma    120.512

_symmetry_space_group_name_H-M    'P1'
_space_group_IT_number       1

loop_
  _space_group_symop_operation_xyz
  'x, y, z'

loop_
  _atom_site_type_symbol
  _atom_site_label
  _atom_site_symmetry_multiplicity
  _atom_site_fract_x
  _atom_site_fract_y
  _atom_site_fract_z
  _atom_site_occupancy
  H   H1        1.0  0.90461  0.42463  0.89125  1.0000
  H   H2        1.0  0.94545  0.40844  0.25522  1.0000
  H   H3        1.0  0.64071  0.17289  0.62420  1.0000
  H   H4        1.0  0.66153  0.22356  0.37837  1.0000
  H   H5        1.0  0.58774  0.25013  0.69214  1.0000
  H   H6        1.0  0.56989  0.20182  0.96132  1.0000
  H   H7        1.0  0.68113  0.26581  0.21870  1.0000
  H   H8        1.0  0.66827  0.34906  0.92842  1.0000
  H   H9        1.0  0.60444  0.28813  0.50182  1.0000
  H   H10       1.0  0.73662  0.30151  0.33453  1.0000
  H   H11       1.0  0.80248  0.33904  0.32766  1.0000
  H   H12       1.0  0.76591  0.38018  0.58616  1.0000
  H   H13       1.0  0.70150  0.34795  0.63574  1.0000
  H   H14       1.0  0.41687  0.54330  0.67110  1.0000
  H   H15       1.0  0.56644  0.41579  0.62464  1.0000
  H   H16       1.0  0.42513  0.50370  0.40859  1.0000
  H   H17       1.0  0.53889  0.44074  0.39450  1.0000
  H   H18       1.0  0.48520  0.44045  0.50382  1.0000
  H   H19       1.0  0.49216  0.51838  0.49338  1.0000
  H   H20       1.0  0.32833  0.57918  0.90149  1.0000
  H   H21       1.0  0.35918  0.54581  0.89612  1.0000
  H   H22       1.0  0.41994  0.59804  0.94321  1.0000
  H   H23       1.0  0.38992  0.63271  0.94884  1.0000
  H   H24       1.0  0.58575  0.11671  0.34399  1.0000
  H   H25       1.0  0.57126  0.01314  0.18376  1.0000
  H   H26       1.0  0.03546  0.51584  0.50187  1.0000
  H   H27       1.0  0.30283  0.59578  0.69312  1.0000
  H   H28       1.0  0.43460  0.44944  0.22449  1.0000
  H   H29       1.0  0.36827  0.66842  0.20011  1.0000
  H   H30       1.0  0.56118  0.50079  0.66110  1.0000
  H   H31       1.0  0.30860  0.69627  0.73542  1.0000
  H   H32       1.0  0.51663  0.03806  0.11263  1.0000
  H   H33       1.0  0.42952  0.85180  0.69055  1.0000
  H   H34       1.0  0.46956  0.90024  0.62528  1.0000
  H   H35       1.0  0.48341  0.97785  0.06332  1.0000
  H   H36       1.0  0.52993  0.95150  0.14588  1.0000
  H   H37       1.0  0.17383  0.58112  0.36462  1.0000
  H   H38       1.0  0.83964  0.39316  0.78492  1.0000
  H   H39       1.0  0.12319  0.53687  0.64595  1.0000
  H   H40       1.0  0.90106  0.42308  0.19389  1.0000
  H   H41       1.0  0.01482  0.44325  0.33001  1.0000
  H   H42       1.0  0.97245  0.48089  0.18876  1.0000
  H   H43       1.0  0.58261  0.15955  0.17363  1.0000
  H   H44       1.0  0.90137  0.38759  0.61745  1.0000
  C   C1        1.0  0.60049  0.18089  0.78372  1.0000
  C   C2        1.0  0.45602  0.46101  0.70411  1.0000
  C   C3        1.0  0.62773  0.18865  0.62744  1.0000
  C   C4        1.0  0.48741  0.45825  0.72149  1.0000
  C   C5        1.0  0.64028  0.21823  0.49603  1.0000
  C   C6        1.0  0.51906  0.47468  0.01413  1.0000
  C   C7        1.0  0.62617  0.24115  0.50836  1.0000
  C   C8        1.0  0.52034  0.49599  0.29889  1.0000
  C   C9        1.0  0.59948  0.23350  0.67017  1.0000
  C   C10       1.0  0.48920  0.49941  0.28015  1.0000
  C   C11       1.0  0.58811  0.20521  0.81382  1.0000
  C   C12       1.0  0.34838  0.58408  0.13547  1.0000
  C   C13       1.0  0.63902  0.27129  0.36045  1.0000
  C   C14       1.0  0.36665  0.56540  0.12786  1.0000
  C   C15       1.0  0.66771  0.28101  0.22004  1.0000
  C   C16       1.0  0.39383  0.57096  0.41673  1.0000
  C   C17       1.0  0.67932  0.30970  0.07467  1.0000
  C   C18       1.0  0.40157  0.59552  0.70937  1.0000
  C   C19       1.0  0.65986  0.32777  0.05268  1.0000
  C   C20       1.0  0.38365  0.61452  0.71290  1.0000
  C   C21       1.0  0.63312  0.32087  0.21096  1.0000
  C   C22       1.0  0.35673  0.60932  0.42471  1.0000
  C   C23       1.0  0.62392  0.29312  0.36654  1.0000
  C   C24       1.0  0.71416  0.32344  0.99293  1.0000
  C   C25       1.0  0.74331  0.32055  0.18796  1.0000
  C   C26       1.0  0.77955  0.33908  0.16118  1.0000
  C   C27       1.0  0.78868  0.36118  0.95409  1.0000
  C   C28       1.0  0.75884  0.36059  0.72844  1.0000
  C   C29       1.0  0.72271  0.34377  0.77193  1.0000
  C   C30       1.0  0.31272  0.62083  0.61822  1.0000
  C   C31       1.0  0.33844  0.63030  0.45179  1.0000
  C   C32       1.0  0.34927  0.66170  0.34371  1.0000
  C   C33       1.0  0.34215  0.68803  0.47699  1.0000
  C   C34       1.0  0.31782  0.67849  0.66261  1.0000
  C   C35       1.0  0.30036  0.64351  0.71726  1.0000
  C   C36       1.0  0.41106  0.54964  0.42543  1.0000
  C   C37       1.0  0.57222  0.41068  0.38425  1.0000
  C   C38       1.0  0.54637  0.46327  0.00571  1.0000
  C   C39       1.0  0.42965  0.49486  0.93703  1.0000
  C   C40       1.0  0.45701  0.48246  0.98688  1.0000
  C   C41       1.0  0.16784  0.57323  0.09500  1.0000
  C   C42       1.0  0.07334  0.49818  0.78882  1.0000
  C   C43       1.0  0.00453  0.45236  0.50552  1.0000
  C   C44       1.0  0.03346  0.48338  0.79092  1.0000
  C   C45       1.0  0.02084  0.49283  0.03894  1.0000
  C   C46       1.0  0.58796  0.15274  0.94558  1.0000
  C   C47       1.0  0.58058  0.07123  0.09315  1.0000
  C   C48       1.0  0.54954  0.00513  0.94798  1.0000
  C   C49       1.0  0.55215  0.03446  0.82675  1.0000
  C   C50       1.0  0.52817  0.02386  0.49591  1.0000
  C   C51       1.0  0.42033  0.83677  0.41808  1.0000
  C   C52       1.0  0.46827  0.91848  0.21427  1.0000
  C   C53       1.0  0.50234  0.95710  0.42572  1.0000
  C   C54       1.0  0.52593  0.96759  0.75685  1.0000
  C   C55       1.0  0.50556  0.98621  0.29868  1.0000
  C   C56       1.0  0.82977  0.38647  0.00549  1.0000
  C   C57       1.0  0.91183  0.41729  0.66746  1.0000
  C   C58       1.0  0.95431  0.44000  0.72953  1.0000
  C   C59       1.0  0.96643  0.43117  0.48196  1.0000
  C   C60       1.0  0.98148  0.47024  0.01148  1.0000
  N   N1        1.0  0.41753  0.53843  0.16919  1.0000
  N   N2        1.0  0.43498  0.51873  0.22380  1.0000
  N   N3        1.0  0.56363  0.42175  0.13612  1.0000
  N   N4        1.0  0.54403  0.43853  0.17267  1.0000
  N   N5        1.0  0.13227  0.54605  0.91428  1.0000
  N   N6        1.0  0.10481  0.52944  0.04372  1.0000
  N   N7        1.0  0.58566  0.12156  0.86024  1.0000
  N   N8        1.0  0.58069  0.10344  0.09271  1.0000
  N   N9        1.0  0.43289  0.85436  0.21029  1.0000
  N   N10       1.0  0.46130  0.89181  0.36893  1.0000
  N   N11       1.0  0.85217  0.39958  0.31236  1.0000
  N   N12       1.0  0.89157  0.42376  0.40204  1.0000
  N   N13       1.0  0.40505  0.48429  0.64695  1.0000
  O   O1        1.0  0.59973  0.07189  0.35510  1.0000
  O   O2        1.0  0.04447  0.52248  0.31223  1.0000
  O   O3        1.0  0.42554  0.44378  0.41882  1.0000
  O   O4        1.0  0.54981  0.51500  0.59154  1.0000
  O   O5        1.0  0.52500  0.04824  0.35616  1.0000
  O   O6        1.0  0.44893  0.91312  0.92642  1.0000
  O   O7        1.0  0.52657  0.94266  0.90659  1.0000
  O   O8        1.0  0.56701  0.47231  0.82582  1.0000
  O   O9        1.0  0.07719  0.48356  0.54493  1.0000
  C   C61       1.0  0.62476  0.38022  0.08387  1.0000
  C   C62       1.0  0.62258  0.35305  0.22964  1.0000
  C  Sn1       1.0  0.60036  0.34164  0.43212  1.0000
  C  Sn2       1.0  0.57998  0.35779  0.48919  1.0000
  C   C63       1.0  0.58233  0.38494  0.34202  1.0000
  C   C64       1.0  0.60466  0.39615  0.13993  1.0000
  H   H45       1.0  0.68227  0.42291  0.92735  1.0000
  O  Te1       1.0  0.59851  0.31447  0.57591  1.0000
  O  Te2       1.0  0.55755  0.34690  0.69039  1.0000
  H   H46       1.0  0.60632  0.41718  0.02693  1.0000
  Mg  Mg1       1.0  0.56411  0.30886  0.83105  1.0000
  C   C65       1.0  0.22675  0.58058  0.62552  1.0000
  C   C66       1.0  0.25697  0.61812  0.74017  1.0000
  C  Sn3       1.0  0.21893  0.60860  0.00177  1.0000
  C  Sn4       1.0  0.19032  0.59518  0.15092  1.0000
  C   C67       1.0  0.16022  0.55757  0.03456  1.0000
  C   C68       1.0  0.19853  0.56732  0.77257  1.0000
  H   H47       1.0  0.22526  0.56179  0.42293  1.0000
  O  Te3       1.0  0.24931  0.64603  0.11318  1.0000
  O  Te4       1.0  0.19184  0.61906  0.41284  1.0000
  H   H48       1.0  0.17514  0.53825  0.68400  1.0000
  Mg  Mg2       1.0  0.23886  0.66770  0.47704  1.0000
  C   C69       1.0  0.39432  0.75970  0.13464  1.0000
  C   C70       1.0  0.39056  0.78868  0.24860  1.0000
  C  Sn5       1.0  0.36854  0.78523  0.45029  1.0000
  C  Sn6       1.0  0.34998  0.75212  0.53921  1.0000
  C   C71       1.0  0.35394  0.72330  0.42412  1.0000
  C   C72       1.0  0.37604  0.72704  0.22233  1.0000
  H   H49       1.0  0.45168  0.79662  0.97866  1.0000
  O  Te5       1.0  0.36508  0.81445  0.56188  1.0000
  O  Te6       1.0  0.32781  0.74795  0.74059  1.0000
  H   H50       1.0  0.37896  0.70460  0.13431  1.0000
  Mg  Mg3       1.0  0.33173  0.79556  0.83063  1.0000
