data_image0
_chemical_formula_structural       H32C42N13O9SnCSn2CSnTe4Mg2SnCSn2CSnTe4Mg2SnCSn2CSnTe4Mg2SnCSn2CSnTe4Mg2SnCSn2CSnTe4Mg2SnCSn2CSnTe4Mg2
_chemical_formula_sum              "H32 C54 N13 O9 Sn24 Te24 Mg12"
_cell_length_a       43.0796
_cell_length_b       43.8455
_cell_length_c       4.33291
_cell_angle_alpha    98.1099
_cell_angle_beta     103.025
_cell_angle_gamma    120.512

_symmetry_space_group_name_H-M    'P1'
_space_group_IT_number       1

loop_
  _space_group_symop_operation_xyz
  'x, y, z'

loop_
  _atom_site_type_symbol
  _atom_site_label
  _atom_site_symmetry_multiplicity
  _atom_site_fract_x
  _atom_site_fract_y
  _atom_site_fract_z
  _atom_site_occupancy
  H   H1        1.0  0.90461  0.42463  0.89125  1.0000
  H   H2        1.0  0.94545  0.40844  0.25522  1.0000
  H   H3        1.0  0.68113  0.26581  0.21870  1.0000
  H   H4        1.0  0.66827  0.34906  0.92842  1.0000
  H   H5        1.0  0.60444  0.28813  0.50182  1.0000
  H   H6        1.0  0.41687  0.54330  0.67110  1.0000
  H   H7        1.0  0.56644  0.41579  0.62464  1.0000
  H   H8        1.0  0.42513  0.50370  0.40859  1.0000
  H   H9        1.0  0.53889  0.44074  0.39450  1.0000
  H   H10       1.0  0.48520  0.44045  0.50382  1.0000
  H   H11       1.0  0.49216  0.51838  0.49338  1.0000
  H   H12       1.0  0.58575  0.11671  0.34399  1.0000
  H   H13       1.0  0.57126  0.01314  0.18376  1.0000
  H   H14       1.0  0.03546  0.51584  0.50187  1.0000
  H   H15       1.0  0.30283  0.59578  0.69312  1.0000
  H   H16       1.0  0.43460  0.44944  0.22449  1.0000
  H   H17       1.0  0.36827  0.66842  0.20011  1.0000
  H   H18       1.0  0.56118  0.50079  0.66110  1.0000
  H   H19       1.0  0.30860  0.69627  0.73542  1.0000
  H   H20       1.0  0.51663  0.03806  0.11263  1.0000
  H   H21       1.0  0.42952  0.85180  0.69055  1.0000
  H   H22       1.0  0.46956  0.90024  0.62528  1.0000
  H   H23       1.0  0.48341  0.97785  0.06332  1.0000
  H   H24       1.0  0.52993  0.95150  0.14588  1.0000
  H   H25       1.0  0.17383  0.58112  0.36462  1.0000
  H   H26       1.0  0.83964  0.39316  0.78492  1.0000
  H   H27       1.0  0.12319  0.53687  0.64595  1.0000
  H   H28       1.0  0.90106  0.42308  0.19389  1.0000
  H   H29       1.0  0.01482  0.44325  0.33001  1.0000
  H   H30       1.0  0.97245  0.48089  0.18876  1.0000
  H   H31       1.0  0.58261  0.15955  0.17363  1.0000
  H   H32       1.0  0.90137  0.38759  0.61745  1.0000
  C   C1        1.0  0.45602  0.46101  0.70411  1.0000
  C   C2        1.0  0.48741  0.45825  0.72149  1.0000
  C   C3        1.0  0.51906  0.47468  0.01413  1.0000
  C   C4        1.0  0.52034  0.49599  0.29889  1.0000
  C   C5        1.0  0.48920  0.49941  0.28015  1.0000
  C   C6        1.0  0.63902  0.27129  0.36045  1.0000
  C   C7        1.0  0.66771  0.28101  0.22004  1.0000
  C   C8        1.0  0.67932  0.30970  0.07467  1.0000
  C   C9        1.0  0.65986  0.32777  0.05268  1.0000
  C   C10       1.0  0.63312  0.32087  0.21096  1.0000
  C   C11       1.0  0.62392  0.29312  0.36654  1.0000
  C   C12       1.0  0.31272  0.62083  0.61822  1.0000
  C   C13       1.0  0.33844  0.63030  0.45179  1.0000
  C   C14       1.0  0.34927  0.66170  0.34371  1.0000
  C   C15       1.0  0.34215  0.68803  0.47699  1.0000
  C   C16       1.0  0.31782  0.67849  0.66261  1.0000
  C   C17       1.0  0.30036  0.64351  0.71726  1.0000
  C   C18       1.0  0.41106  0.54964  0.42543  1.0000
  C   C19       1.0  0.57222  0.41068  0.38425  1.0000
  C   C20       1.0  0.54637  0.46327  0.00571  1.0000
  C   C21       1.0  0.42965  0.49486  0.93703  1.0000
  C   C22       1.0  0.45701  0.48246  0.98688  1.0000
  C   C23       1.0  0.16784  0.57323  0.09500  1.0000
  C   C24       1.0  0.07334  0.49818  0.78882  1.0000
  C   C25       1.0  0.00453  0.45236  0.50552  1.0000
  C   C26       1.0  0.03346  0.48338  0.79092  1.0000
  C   C27       1.0  0.02084  0.49283  0.03894  1.0000
  C   C28       1.0  0.58796  0.15274  0.94558  1.0000
  C   C29       1.0  0.58058  0.07123  0.09315  1.0000
  C   C30       1.0  0.54954  0.00513  0.94798  1.0000
  C   C31       1.0  0.55215  0.03446  0.82675  1.0000
  C   C32       1.0  0.52817  0.02386  0.49591  1.0000
  C   C33       1.0  0.42033  0.83677  0.41808  1.0000
  C   C34       1.0  0.46827  0.91848  0.21427  1.0000
  C   C35       1.0  0.50234  0.95710  0.42572  1.0000
  C   C36       1.0  0.52593  0.96759  0.75685  1.0000
  C   C37       1.0  0.50556  0.98621  0.29868  1.0000
  C   C38       1.0  0.82977  0.38647  0.00549  1.0000
  C   C39       1.0  0.91183  0.41729  0.66746  1.0000
  C   C40       1.0  0.95431  0.44000  0.72953  1.0000
  C   C41       1.0  0.96643  0.43117  0.48196  1.0000
  C   C42       1.0  0.98148  0.47024  0.01148  1.0000
  N   N1        1.0  0.41753  0.53843  0.16919  1.0000
  N   N2        1.0  0.43498  0.51873  0.22380  1.0000
  N   N3        1.0  0.56363  0.42175  0.13612  1.0000
  N   N4        1.0  0.54403  0.43853  0.17267  1.0000
  N   N5        1.0  0.13227  0.54605  0.91428  1.0000
  N   N6        1.0  0.10481  0.52944  0.04372  1.0000
  N   N7        1.0  0.58566  0.12156  0.86024  1.0000
  N   N8        1.0  0.58069  0.10344  0.09271  1.0000
  N   N9        1.0  0.43289  0.85436  0.21029  1.0000
  N   N10       1.0  0.46130  0.89181  0.36893  1.0000
  N   N11       1.0  0.85217  0.39958  0.31236  1.0000
  N   N12       1.0  0.89157  0.42376  0.40204  1.0000
  N   N13       1.0  0.40505  0.48429  0.64695  1.0000
  O   O1        1.0  0.59973  0.07189  0.35510  1.0000
  O   O2        1.0  0.04447  0.52248  0.31223  1.0000
  O   O3        1.0  0.42554  0.44378  0.41882  1.0000
  O   O4        1.0  0.54981  0.51500  0.59154  1.0000
  O   O5        1.0  0.52500  0.04824  0.35616  1.0000
  O   O6        1.0  0.44893  0.91312  0.92642  1.0000
  O   O7        1.0  0.52657  0.94266  0.90659  1.0000
  O   O8        1.0  0.56701  0.47231  0.82582  1.0000
  O   O9        1.0  0.07719  0.48356  0.54493  1.0000
  C  Sn1       1.0  0.60474  0.23566  0.79483  1.0000
  C   C43       1.0  0.62851  0.24506  0.60381  1.0000
  C  Sn2       1.0  0.63811  0.22091  0.48338  1.0000
  C  Sn3       1.0  0.62364  0.18663  0.55519  1.0000
  C   C44       1.0  0.59988  0.17725  0.74604  1.0000
  C  Sn4       1.0  0.59027  0.20139  0.86663  1.0000
  O  Te1       1.0  0.59551  0.26023  0.91263  1.0000
  O  Te2       1.0  0.66193  0.23092  0.29303  1.0000
  O  Te3       1.0  0.63289  0.16206  0.43721  1.0000
  O  Te4       1.0  0.52621  0.15738  0.05682  1.0000
  Mg  Mg1       1.0  0.66633  0.18813  0.18850  1.0000
  Mg  Mg2       1.0  0.52178  0.20013  0.16133  1.0000
  C  Sn5       1.0  0.37019  0.57667  0.08640  1.0000
  C   C45       1.0  0.39622  0.57757  0.35317  1.0000
  C  Sn6       1.0  0.40097  0.59258  0.68010  1.0000
  C  Sn7       1.0  0.37924  0.60698  0.74172  1.0000
  C   C46       1.0  0.35323  0.60607  0.47506  1.0000
  C  Sn8       1.0  0.34846  0.59107  0.14802  1.0000
  O  Te5       1.0  0.40615  0.59555  0.76159  1.0000
  O  Te6       1.0  0.42718  0.59319  0.94273  1.0000
  O  Te7       1.0  0.34330  0.58812  0.06686  1.0000
  O  Te8       1.0  0.36251  0.62448  0.88550  1.0000
  Mg  Mg3       1.0  0.38257  0.58265  0.34133  1.0000
  Mg  Mg4       1.0  0.36684  0.60098  0.48682  1.0000
  C  Sn9       1.0  0.38339  0.75706  0.06046  1.0000
  C   C47       1.0  0.38233  0.78693  0.20552  1.0000
  C  Sn10      1.0  0.36921  0.78657  0.47272  1.0000
  C  Sn11      1.0  0.35691  0.75572  0.59771  1.0000
  C   C48       1.0  0.35798  0.72588  0.45272  1.0000
  C  Sn12      1.0  0.37109  0.72622  0.18545  1.0000
  O  Te9       1.0  0.43686  0.79204  0.79356  1.0000
  O  Te10      1.0  0.36840  0.81674  0.61357  1.0000
  O  Te11      1.0  0.34367  0.75478  0.86482  1.0000
  O  Te12      1.0  0.37190  0.69607  0.04467  1.0000
  Mg  Mg5       1.0  0.34801  0.80249  0.97291  1.0000
  Mg  Mg6       1.0  0.43255  0.74431  0.68546  1.0000
  C  Sn13      1.0  0.75397  0.36674  0.79425  1.0000
  C   C49       1.0  0.78516  0.36529  0.94943  1.0000
  C  Sn14      1.0  0.73967  0.30364  0.09931  1.0000
  C  Sn15      1.0  0.70247  0.27687  0.09382  1.0000
  C   C50       1.0  0.71155  0.31233  0.93868  1.0000
  C  Sn16      1.0  0.71677  0.33997  0.78876  1.0000
  O  Te13      1.0  0.75988  0.39461  0.64597  1.0000
  O  Te14      1.0  0.77130  0.30277  0.25302  1.0000
  O  Te15      1.0  0.69658  0.24899  0.24229  1.0000
  O  Te16      1.0  0.68516  0.34084  0.63508  1.0000
  Mg  Mg7       1.0  0.74866  0.25939  0.42052  1.0000
  Mg  Mg8       1.0  0.70777  0.38419  0.46736  1.0000
  C  Sn17      1.0  0.63392  0.38648  0.18627  1.0000
  C   C51       1.0  0.62805  0.35677  0.30723  1.0000
  C  Sn18      1.0  0.59813  0.33931  0.42982  1.0000
  C  Sn19      1.0  0.57354  0.35178  0.43137  1.0000
  C   C52       1.0  0.57940  0.38146  0.31041  1.0000
  C  Sn20      1.0  0.60933  0.39895  0.18781  1.0000
  O  Te17      1.0  0.66401  0.40352  0.06487  1.0000
  O  Te18      1.0  0.59284  0.30967  0.54955  1.0000
  O  Te19      1.0  0.54343  0.33470  0.55291  1.0000
  O  Te20      1.0  0.61461  0.42856  0.06809  1.0000
  Mg  Mg9       1.0  0.54785  0.29544  0.68923  1.0000
  Mg  Mg10      1.0  0.69983  0.47681  0.92821  1.0000
  C  Sn21      1.0  0.26104  0.64270  0.14767  1.0000
  C   C53       1.0  0.30793  0.66300  0.87629  1.0000
  C  Sn22      1.0  0.27889  0.62880  0.63902  1.0000
  C  Sn23      1.0  0.24244  0.60786  0.67358  1.0000
  C   C54       1.0  0.23581  0.62158  0.94479  1.0000
  C  Sn24      1.0  0.22459  0.62176  0.18223  1.0000
  O  Te21      1.0  0.29048  0.67696  0.38185  1.0000
  O  Te22      1.0  0.28622  0.61566  0.36991  1.0000
  O  Te23      1.0  0.21299  0.57357  0.43911  1.0000
  O  Te24      1.0  0.21727  0.63490  0.45117  1.0000
  Mg  Mg11      1.0  0.23692  0.56746  0.11613  1.0000
  Mg  Mg12      1.0  0.26654  0.68310  0.70499  1.0000
