data_image0
_chemical_formula_structural       H16C40S16N16C2Sn2C2HTe2HMgC2Sn2C2HTe2HMgC2Sn2C2HTe2HMgC2Sn2C2HTe2HMgC2Sn2C2HTe2HMgC2Sn2C2HTe2HMgC2Sn2C2HTe2HMgC2Sn2C2HTe2HMgC2Sn2C2HTe2HMgC2Sn2C2HTe2HMgC2Sn2C2HTe2HMgC2Sn2C2HTe2HMgC2Sn2C2HTe2HMgC2Sn2C2HTe2HMgC2Sn2C2HTe2HMgC2Sn2C2HTe2HMgC2Sn2C2HTe2HMgC2Sn2C2HTe2HMgC2Sn2C2HTe2HMgC2Sn2C2HTe2HMgC2Sn2C2HTe2HMgC2Sn2C2HTe2HMgC2Sn2C2HTe2HMgC2Sn2C2HTe2HMgC2Sn2C2HTe2HMgC2Sn2C2HTe2HMgC2Sn2C2HTe2HMgC2Sn2C2HTe2HMgC2Sn2C2HTe2HMgC2Sn2C2HTe2HMgC2Sn2C2HTe2HMgC2Sn2C2HTe2HMgC2Sn2C2HTe2HMgC2Sn2C2HTe2HMgC2Sn2C2HTe2HMgC2Sn2C2HTe2HMgC2Sn2C2HTe2HMgC2Sn2C2HTe2HMgC2Sn2C2HTe2HMgC2Sn2C2HTe2HMg
_chemical_formula_sum              "H96 C200 S16 N16 Sn80 Te80 Mg40"
_cell_length_a       48.5194
_cell_length_b       43.9206
_cell_length_c       8.62471
_cell_angle_alpha    116.479
_cell_angle_beta     93.705
_cell_angle_gamma    89.877

_symmetry_space_group_name_H-M    'P1'
_space_group_IT_number       1

loop_
  _space_group_symop_operation_xyz
  'x, y, z'

loop_
  _atom_site_type_symbol
  _atom_site_label
  _atom_site_symmetry_multiplicity
  _atom_site_fract_x
  _atom_site_fract_y
  _atom_site_fract_z
  _atom_site_occupancy
  H   H1        1.0  0.16845  0.59484  0.15505  1.0000
  H   H2        1.0  0.83414  0.40995  0.37612  1.0000
  H   H3        1.0  0.82568  0.59279  0.26807  1.0000
  H   H4        1.0  0.17236  0.40067  0.26786  1.0000
  H   H5        1.0  0.67045  0.09254  0.14457  1.0000
  H   H6        1.0  0.32872  0.90715  0.28940  1.0000
  H   H7        1.0  0.32640  0.09412  0.24429  1.0000
  H   H8        1.0  0.67706  0.90397  0.25452  1.0000
  H   H9        1.0  0.16369  0.59609  0.64665  1.0000
  H   H10       1.0  0.83251  0.39532  0.75939  1.0000
  H   H11       1.0  0.83512  0.61130  0.85627  1.0000
  H   H12       1.0  0.17243  0.40447  0.74788  1.0000
  H   H13       1.0  0.67117  0.09846  0.75486  1.0000
  H   H14       1.0  0.32715  0.89682  0.66175  1.0000
  H   H15       1.0  0.33530  0.11676  0.89402  1.0000
  H   H16       1.0  0.66481  0.88386  0.64163  1.0000
  C   C1        1.0  0.48769  0.99640  0.19950  1.0000
  C   C2        1.0  0.51567  0.99607  0.19332  1.0000
  C   C3        1.0  0.98867  0.50302  0.31009  1.0000
  C   C4        1.0  0.01671  0.50285  0.30594  1.0000
  C   C5        1.0  0.15006  0.60704  0.22285  1.0000
  C   C6        1.0  0.85067  0.39700  0.29060  1.0000
  C   C7        1.0  0.84668  0.60314  0.27663  1.0000
  C   C8        1.0  0.15176  0.38917  0.21105  1.0000
  C   C9        1.0  0.65194  0.10426  0.21250  1.0000
  C   C10       1.0  0.34935  0.89619  0.26514  1.0000
  C   C11       1.0  0.34762  0.10492  0.27070  1.0000
  C   C12       1.0  0.65560  0.89452  0.24116  1.0000
  C   C13       1.0  0.43546  0.01285  0.22611  1.0000
  C   C14       1.0  0.56786  0.98254  0.23153  1.0000
  C   C15       1.0  0.56800  0.01304  0.22230  1.0000
  C   C16       1.0  0.43656  0.98301  0.24319  1.0000
  C   C17       1.0  0.93641  0.51725  0.28129  1.0000
  C   C18       1.0  0.06818  0.48471  0.24735  1.0000
  C   C19       1.0  0.06763  0.51791  0.27127  1.0000
  C   C20       1.0  0.93639  0.48542  0.27501  1.0000
  C   C21       1.0  0.48485  0.99393  0.69071  1.0000
  C   C22       1.0  0.51270  0.99207  0.67818  1.0000
  C   C23       1.0  0.98762  0.50624  0.85267  1.0000
  C   C24       1.0  0.01547  0.50607  0.84075  1.0000
  C   C25       1.0  0.14640  0.60903  0.72496  1.0000
  C   C26       1.0  0.85332  0.38508  0.73232  1.0000
  C   C27       1.0  0.85302  0.61052  0.78262  1.0000
  C   C28       1.0  0.15164  0.39281  0.69881  1.0000
  C   C29       1.0  0.64997  0.10775  0.76334  1.0000
  C   C30       1.0  0.34622  0.89586  0.73552  1.0000
  C   C31       1.0  0.35163  0.11574  0.80916  1.0000
  C   C32       1.0  0.64724  0.88486  0.71822  1.0000
  C   C33       1.0  0.43417  0.01603  0.73088  1.0000
  C   C34       1.0  0.56481  0.97884  0.70840  1.0000
  C   C35       1.0  0.56524  0.01042  0.70903  1.0000
  C   C36       1.0  0.43307  0.98550  0.74029  1.0000
  C   C37       1.0  0.93547  0.51859  0.81800  1.0000
  C   C38       1.0  0.06629  0.48754  0.76556  1.0000
  C   C39       1.0  0.06545  0.52096  0.79405  1.0000
  C   C40       1.0  0.93544  0.48592  0.80295  1.0000
  S   S1        1.0  0.46659  0.02676  0.17791  1.0000
  S   S2        1.0  0.53472  0.96229  0.19451  1.0000
  S   S3        1.0  0.53590  0.02692  0.17376  1.0000
  S   S4        1.0  0.46926  0.96376  0.21489  1.0000
  S   S5        1.0  0.96945  0.53831  0.33001  1.0000
  S   S6        1.0  0.03733  0.46894  0.29014  1.0000
  S   S7        1.0  0.03589  0.53847  0.32855  1.0000
  S   S8        1.0  0.96851  0.46993  0.30935  1.0000
  S   S9        1.0  0.46643  0.02775  0.68560  1.0000
  S   S10       1.0  0.53217  0.95773  0.66532  1.0000
  S   S11       1.0  0.53231  0.02327  0.65795  1.0000
  S   S12       1.0  0.46391  0.96223  0.69718  1.0000
  S   S13       1.0  0.96757  0.54123  0.88155  1.0000
  S   S14       1.0  0.03600  0.47143  0.81304  1.0000
  S   S15       1.0  0.03426  0.54185  0.86284  1.0000
  S   S16       1.0  0.96834  0.47271  0.85254  1.0000
  N   N1        1.0  0.14624  0.63919  0.27619  1.0000
  N   N2        1.0  0.85223  0.36429  0.21717  1.0000
  N   N3        1.0  0.85123  0.63162  0.27074  1.0000
  N   N4        1.0  0.14617  0.35742  0.16595  1.0000
  N   N5        1.0  0.64791  0.13651  0.27215  1.0000
  N   N6        1.0  0.35403  0.86601  0.24970  1.0000
  N   N7        1.0  0.35297  0.13547  0.29263  1.0000
  N   N8        1.0  0.64956  0.86568  0.23970  1.0000
  N   N9        1.0  0.14382  0.64152  0.78670  1.0000
  N   N10       1.0  0.85881  0.35519  0.71918  1.0000
  N   N11       1.0  0.85559  0.63108  0.71361  1.0000
  N   N12       1.0  0.14615  0.36146  0.66286  1.0000
  N   N13       1.0  0.64460  0.13702  0.76781  1.0000
  N   N14       1.0  0.34958  0.87357  0.79456  1.0000
  N   N15       1.0  0.35283  0.13649  0.74009  1.0000
  N   N16       1.0  0.64490  0.86414  0.78654  1.0000
  C   C41       1.0  0.10122  0.59666  0.36731  1.0000
  C   C42       1.0  0.12482  0.58878  0.27360  1.0000
  C  Sn1       1.0  0.13039  0.55494  0.16445  1.0000
  C  Sn2       1.0  0.11195  0.52855  0.14906  1.0000
  C   C43       1.0  0.08838  0.53670  0.24327  1.0000
  C   C44       1.0  0.08301  0.57065  0.35216  1.0000
  H   H17       1.0  0.09705  0.62293  0.45149  1.0000
  O  Te1       1.0  0.15407  0.54751  0.07180  1.0000
  O  Te2       1.0  0.11702  0.49451  0.04086  1.0000
  H   H18       1.0  0.06473  0.57674  0.42461  1.0000
  Mg  Mg1       1.0  0.16335  0.58476  0.94119  1.0000
  C   C45       1.0  0.89701  0.40793  0.12578  1.0000
  C   C46       1.0  0.87699  0.41463  0.24548  1.0000
  C  Sn3       1.0  0.87427  0.44760  0.37662  1.0000
  C  Sn4       1.0  0.89193  0.47431  0.38779  1.0000
  C   C47       1.0  0.91188  0.46735  0.26734  1.0000
  C   C48       1.0  0.91443  0.43426  0.13666  1.0000
  H   H19       1.0  0.89898  0.38233  0.02461  1.0000
  O  Te3       1.0  0.85417  0.45385  0.49519  1.0000
  O  Te4       1.0  0.88965  0.50750  0.51752  1.0000
  H   H20       1.0  0.92992  0.42909  0.04393  1.0000
  Mg  Mg2       1.0  0.85908  0.50329  0.64876  1.0000
  C   C49       1.0  0.90450  0.59222  0.31435  1.0000
  C   C50       1.0  0.87620  0.58465  0.27448  1.0000
  C  Sn5       1.0  0.86572  0.55218  0.23435  1.0000
  C  Sn6       1.0  0.88396  0.52688  0.23431  1.0000
  C   C51       1.0  0.91223  0.53471  0.27450  1.0000
  C   C52       1.0  0.92250  0.56728  0.31441  1.0000
  H   H21       1.0  0.91245  0.61742  0.34532  1.0000
  O  Te5       1.0  0.83740  0.54504  0.19475  1.0000
  O  Te6       1.0  0.87403  0.49423  0.19475  1.0000
  H   H22       1.0  0.94441  0.57314  0.34539  1.0000
  Mg  Mg3       1.0  0.83378  0.49681  0.14931  1.0000
  C   C53       1.0  0.08622  0.41605  0.11885  1.0000
  C   C54       1.0  0.08843  0.45156  0.19698  1.0000
  C  Sn7       1.0  0.11382  0.46820  0.27269  1.0000
  C  Sn8       1.0  0.13740  0.44884  0.26989  1.0000
  C   C55       1.0  0.13498  0.41332  0.19130  1.0000
  C   C56       1.0  0.10947  0.39694  0.11597  1.0000
  H   H23       1.0  0.06649  0.40337  0.06048  1.0000
  O  Te7       1.0  0.11566  0.50370  0.35025  1.0000
  O  Te8       1.0  0.16303  0.46481  0.34453  1.0000
  H   H24       1.0  0.10777  0.36944  0.05539  1.0000
  Mg  Mg4       1.0  0.15509  0.51377  0.43471  1.0000
  C   C57       1.0  0.63218  0.03679  0.12139  1.0000
  C   C58       1.0  0.63285  0.07235  0.19952  1.0000
  C  Sn9       1.0  0.61191  0.09037  0.30433  1.0000
  C  Sn10      1.0  0.58994  0.07239  0.33121  1.0000
  C   C59       1.0  0.58947  0.03681  0.25256  1.0000
  C   C60       1.0  0.61052  0.01904  0.14789  1.0000
  H   H25       1.0  0.64847  0.02304  0.04048  1.0000
  O  Te9       1.0  0.61289  0.12589  0.38135  1.0000
  O  Te10      1.0  0.56876  0.08976  0.43539  1.0000
  H   H26       1.0  0.60806  0.99151  0.08750  1.0000
  Mg  Mg5       1.0  0.57924  0.13815  0.51224  1.0000
  C   C61       1.0  0.36992  0.96194  0.32937  1.0000
  C   C62       1.0  0.36905  0.92648  0.26090  1.0000
  C  Sn11      1.0  0.39294  0.90810  0.20416  1.0000
  C  Sn12      1.0  0.41814  0.92562  0.21639  1.0000
  C   C63       1.0  0.41880  0.96110  0.28520  1.0000
  C   C64       1.0  0.39477  0.97924  0.34154  1.0000
  H   H27       1.0  0.35133  0.97598  0.37306  1.0000
  O  Te11      1.0  0.39170  0.87268  0.13603  1.0000
  O  Te12      1.0  0.44233  0.90788  0.16070  1.0000
  H   H28       1.0  0.39545  0.00670  0.39465  1.0000
  Mg  Mg6       1.0  0.43017  0.85980  0.07732  1.0000
  C   C65       1.0  0.37735  0.02529  0.17601  1.0000
  C   C66       1.0  0.40591  0.03157  0.20135  1.0000
  C  Sn13      1.0  0.41665  0.06489  0.27175  1.0000
  C  Sn14      1.0  0.39841  0.09239  0.31754  1.0000
  C   C67       1.0  0.36986  0.08584  0.29180  1.0000
  C   C68       1.0  0.35934  0.05240  0.22121  1.0000
  H   H29       1.0  0.36726  0.99942  0.12149  1.0000
  O  Te13      1.0  0.44524  0.07071  0.29613  1.0000
  O  Te14      1.0  0.40858  0.12594  0.38820  1.0000
  H   H30       1.0  0.33722  0.04755  0.20172  1.0000
  Mg  Mg7       1.0  0.44914  0.12090  0.39662  1.0000
  C   C69       1.0  0.58744  0.91869  0.19553  1.0000
  C   C70       1.0  0.58863  0.95376  0.24858  1.0000
  C  Sn15      1.0  0.61408  0.97146  0.29492  1.0000
  C  Sn16      1.0  0.63877  0.95365  0.28784  1.0000
  C   C71       1.0  0.63736  0.91857  0.23448  1.0000
  C   C72       1.0  0.61179  0.90111  0.18845  1.0000
  H   H31       1.0  0.56766  0.90518  0.15983  1.0000
  O  Te15      1.0  0.61489  0.00649  0.34769  1.0000
  O  Te16      1.0  0.66448  0.97071  0.33337  1.0000
  H   H32       1.0  0.61088  0.87396  0.14727  1.0000
  Mg  Mg8       1.0  0.65489  0.01847  0.39694  1.0000
  C   C73       1.0  0.21328  0.67260  0.31785  1.0000
  C   C74       1.0  0.21049  0.69771  0.26075  1.0000
  C  Sn17      1.0  0.18443  0.70485  0.20831  1.0000
  C  Sn18      1.0  0.16077  0.68647  0.21332  1.0000
  C   C75       1.0  0.16378  0.66141  0.27077  1.0000
  C   C76       1.0  0.18995  0.65447  0.32290  1.0000
  H   H33       1.0  0.23353  0.66723  0.35828  1.0000
  O  Te17      1.0  0.18201  0.73002  0.15155  1.0000
  O  Te18      1.0  0.13448  0.69310  0.16170  1.0000
  H   H34       1.0  0.19210  0.63503  0.36721  1.0000
  Mg  Mg9       1.0  0.14179  0.72979  0.09444  1.0000
  C   C77       1.0  0.78465  0.33660  0.22339  1.0000
  C   C78       1.0  0.78791  0.30528  0.22684  1.0000
  C  Sn19      1.0  0.81433  0.29342  0.23858  1.0000
  C  Sn20      1.0  0.83788  0.31334  0.24705  1.0000
  C   C79       1.0  0.83440  0.34465  0.24364  1.0000
  C   C80       1.0  0.80787  0.35627  0.23181  1.0000
  H   H35       1.0  0.76413  0.34560  0.21433  1.0000
  O  Te19      1.0  0.81721  0.26206  0.24181  1.0000
  O  Te20      1.0  0.86452  0.30209  0.25891  1.0000
  H   H36       1.0  0.80536  0.38053  0.22925  1.0000
  Mg  Mg10      1.0  0.85780  0.25765  0.25897  1.0000
  C   C81       1.0  0.79641  0.65598  0.33718  1.0000
  C   C82       1.0  0.82197  0.64880  0.26451  1.0000
  C  Sn21      1.0  0.83164  0.66709  0.18068  1.0000
  C  Sn22      1.0  0.81539  0.69304  0.16965  1.0000
  C   C83       1.0  0.78985  0.70004  0.24288  1.0000
  C   C84       1.0  0.78036  0.68157  0.32642  1.0000
  H   H37       1.0  0.78907  0.64170  0.40191  1.0000
  O  Te21      1.0  0.85722  0.65958  0.10872  1.0000
  O  Te22      1.0  0.82457  0.71172  0.08666  1.0000
  H   H38       1.0  0.76058  0.68715  0.38277  1.0000
  Mg  Mg11      1.0  0.86083  0.69205  0.00880  1.0000
  C   C85       1.0  0.16126  0.30182  0.22119  1.0000
  C   C86       1.0  0.16473  0.33007  0.18945  1.0000
  C  Sn23      1.0  0.19070  0.33848  0.15591  1.0000
  C  Sn24      1.0  0.21358  0.31817  0.15417  1.0000
  C   C87       1.0  0.20988  0.28994  0.18596  1.0000
  C   C88       1.0  0.18380  0.28177  0.21942  1.0000
  H   H39       1.0  0.14108  0.29548  0.24699  1.0000
  O  Te23      1.0  0.19381  0.36680  0.12453  1.0000
  O  Te24      1.0  0.23976  0.32599  0.12095  1.0000
  H   H40       1.0  0.18112  0.25988  0.24388  1.0000
  Mg  Mg12      1.0  0.23358  0.36712  0.08573  1.0000
  C   C89       1.0  0.67186  0.20823  0.24871  1.0000
  C   C90       1.0  0.70055  0.20973  0.28100  1.0000
  C  Sn25      1.0  0.71392  0.18346  0.30198  1.0000
  C  Sn26      1.0  0.69822  0.15520  0.29029  1.0000
  C   C91       1.0  0.66954  0.15393  0.25782  1.0000
  C   C92       1.0  0.65637  0.18036  0.23709  1.0000
  H   H41       1.0  0.66167  0.22867  0.23257  1.0000
  O  Te25      1.0  0.74259  0.18537  0.33423  1.0000
  O  Te26      1.0  0.71106  0.12860  0.31067  1.0000
  H   H42       1.0  0.63416  0.17918  0.21198  1.0000
  Mg  Mg13      1.0  0.75063  0.14282  0.35268  1.0000
  C   C93       1.0  0.29832  0.84050  0.16262  1.0000
  C   C94       1.0  0.32510  0.84748  0.24240  1.0000
  C  Sn27      1.0  0.33563  0.82893  0.32782  1.0000
  C  Sn28      1.0  0.31900  0.80293  0.33322  1.0000
  C   C95       1.0  0.29225  0.79613  0.25290  1.0000
  C   C96       1.0  0.28192  0.81485  0.16782  1.0000
  H   H43       1.0  0.29033  0.85497  0.09671  1.0000
  O  Te27      1.0  0.36242  0.83624  0.40691  1.0000
  O  Te28      1.0  0.32902  0.78400  0.41765  1.0000
  H   H44       1.0  0.26119  0.80943  0.10596  1.0000
  Mg  Mg14      1.0  0.36682  0.80346  0.50608  1.0000
  C   C97       1.0  0.29792  0.15957  0.35419  1.0000
  C   C98       1.0  0.32439  0.15424  0.29375  1.0000
  C  Sn29      1.0  0.33506  0.17460  0.22391  1.0000
  C  Sn30      1.0  0.31887  0.20075  0.21463  1.0000
  C   C99       1.0  0.29241  0.20589  0.27557  1.0000
  C   C100      1.0  0.28194  0.18537  0.34516  1.0000
  H   H45       1.0  0.28982  0.14370  0.40812  1.0000
  O  Te29      1.0  0.36154  0.16892  0.16405  1.0000
  O  Te30      1.0  0.32902  0.22148  0.14551  1.0000
  H   H46       1.0  0.26145  0.18952  0.39205  1.0000
  Mg  Mg15      1.0  0.36629  0.20382  0.08077  1.0000
  C   C101      1.0  0.66563  0.81451  0.32740  1.0000
  C   C102      1.0  0.66820  0.83890  0.26630  1.0000
  C  Sn31      1.0  0.69222  0.84131  0.19095  1.0000
  C  Sn32      1.0  0.71404  0.81885  0.17663  1.0000
  C   C103      1.0  0.71127  0.79452  0.23803  1.0000
  C   C104      1.0  0.68714  0.79234  0.31327  1.0000
  H   H47       1.0  0.64696  0.81281  0.38552  1.0000
  O  Te31      1.0  0.69445  0.86584  0.13064  1.0000
  O  Te32      1.0  0.73827  0.82070  0.10181  1.0000
  H   H48       1.0  0.68515  0.77344  0.36045  1.0000
  Mg  Mg16      1.0  0.73154  0.85839  0.03878  1.0000
  C   C105      1.0  0.27529  0.73502  0.23581  1.0000
  C   C106      1.0  0.27201  0.76700  0.24012  1.0000
  C  Sn33      1.0  0.24605  0.78158  0.26099  1.0000
  C  Sn34      1.0  0.22299  0.76375  0.27785  1.0000
  C   C107      1.0  0.22649  0.73178  0.27350  1.0000
  C   C108      1.0  0.25256  0.71742  0.25251  1.0000
  H   H49       1.0  0.29546  0.72392  0.21967  1.0000
  O  Te33      1.0  0.24313  0.81354  0.26495  1.0000
  O  Te34      1.0  0.19681  0.77773  0.29892  1.0000
  H   H50       1.0  0.25509  0.69267  0.24928  1.0000
  Mg  Mg17      1.0  0.20329  0.82198  0.29624  1.0000
  C   C109      1.0  0.73463  0.27019  0.16864  1.0000
  C   C110      1.0  0.76177  0.27770  0.24227  1.0000
  C  Sn35      1.0  0.77333  0.26015  0.33046  1.0000
  C  Sn36      1.0  0.75737  0.23463  0.34495  1.0000
  C   C111      1.0  0.73024  0.22729  0.27073  1.0000
  C   C112      1.0  0.71888  0.24501  0.18281  1.0000
  H   H51       1.0  0.72585  0.28388  0.10053  1.0000
  O  Te35      1.0  0.80047  0.26799  0.40331  1.0000
  O  Te36      1.0  0.76841  0.21670  0.43233  1.0000
  H   H52       1.0  0.69787  0.23917  0.12572  1.0000
  Mg  Mg18      1.0  0.80633  0.23656  0.50974  1.0000
  C   C113      1.0  0.73212  0.71852  0.24523  1.0000
  C   C114      1.0  0.76076  0.71870  0.23589  1.0000
  C  Sn37      1.0  0.77466  0.74747  0.24658  1.0000
  C  Sn38      1.0  0.75956  0.77657  0.26705  1.0000
  C   C115      1.0  0.73091  0.77614  0.27639  1.0000
  C   C116      1.0  0.71720  0.74721  0.26549  1.0000
  H   H53       1.0  0.72152  0.69614  0.23690  1.0000
  O  Te37      1.0  0.80329  0.74721  0.23696  1.0000
  O  Te38      1.0  0.77293  0.80567  0.27816  1.0000
  H   H54       1.0  0.69503  0.74709  0.27284  1.0000
  Mg  Mg19      1.0  0.81219  0.79298  0.25836  1.0000
  C   C117      1.0  0.22324  0.22798  0.20597  1.0000
  C   C118      1.0  0.22605  0.26152  0.23041  1.0000
  C  Sn39      1.0  0.25219  0.27737  0.26510  1.0000
  C  Sn40      1.0  0.27592  0.25925  0.27538  1.0000
  C   C119      1.0  0.27289  0.22570  0.25061  1.0000
  C   C120      1.0  0.24664  0.21008  0.21602  1.0000
  H   H55       1.0  0.20293  0.21589  0.17912  1.0000
  O  Te39      1.0  0.25462  0.31090  0.28925  1.0000
  O  Te40      1.0  0.30229  0.27448  0.30981  1.0000
  H   H56       1.0  0.24448  0.18411  0.19699  1.0000
  Mg  Mg20      1.0  0.29497  0.32065  0.33316  1.0000
  C   C121      1.0  0.11147  0.53156  0.62639  1.0000
  C   C122      1.0  0.09191  0.53904  0.74945  1.0000
  C  Sn41      1.0  0.08902  0.57251  0.87499  1.0000
  C  Sn42      1.0  0.10605  0.59892  0.87701  1.0000
  C   C123      1.0  0.12554  0.59118  0.75325  1.0000
  C   C124      1.0  0.12827  0.55760  0.62824  1.0000
  H   H57       1.0  0.11357  0.50559  0.52960  1.0000
  O  Te41      1.0  0.06938  0.57954  0.99703  1.0000
  O  Te42      1.0  0.09227  0.54507  0.00100  1.0000
  H   H58       1.0  0.14340  0.55182  0.53291  1.0000
  Mg  Mg21      1.0  0.06250  0.54187  0.14011  1.0000
  C   C125      1.0  0.87799  0.46466  0.78891  1.0000
  C   C126      1.0  0.90647  0.46224  0.77211  1.0000
  C  Sn43      1.0  0.91901  0.43085  0.71992  1.0000
  C  Sn44      1.0  0.90269  0.40138  0.68392  1.0000
  C   C127      1.0  0.87421  0.40407  0.70100  1.0000
  C   C128      1.0  0.86187  0.43561  0.75337  1.0000
  H   H59       1.0  0.86844  0.48906  0.82934  1.0000
  O  Te43      1.0  0.94749  0.42889  0.70385  1.0000
  O  Te44      1.0  0.91469  0.36969  0.63147  1.0000
  H   H60       1.0  0.83982  0.43747  0.76626  1.0000
  Mg  Mg22      1.0  0.95430  0.37999  0.62842  1.0000
  C   C129      1.0  0.90572  0.57835  0.68696  1.0000
  C   C130      1.0  0.87988  0.58571  0.75596  1.0000
  C  Sn45      1.0  0.87113  0.57091  0.85868  1.0000
  C  Sn46      1.0  0.88861  0.54833  0.89277  1.0000
  C   C131      1.0  0.91442  0.54115  0.82323  1.0000
  C   C132      1.0  0.92298  0.55610  0.72057  1.0000
  H   H61       1.0  0.91235  0.58993  0.60760  1.0000
  O  Te45      1.0  0.84525  0.57853  0.92654  1.0000
  O  Te46      1.0  0.88037  0.53318  0.99506  1.0000
  H   H62       1.0  0.94299  0.55041  0.66726  1.0000
  Mg  Mg23      1.0  0.83193  0.46401  0.05834  1.0000
  C   C133      1.0  0.08454  0.41907  0.63372  1.0000
  C   C134      1.0  0.08679  0.45454  0.70640  1.0000
  C  Sn47      1.0  0.11262  0.47114  0.76550  1.0000
  C  Sn48      1.0  0.13661  0.45179  0.75136  1.0000
  C   C135      1.0  0.13415  0.41632  0.67834  1.0000
  C   C136      1.0  0.10819  0.39997  0.61966  1.0000
  H   H63       1.0  0.06447  0.40642  0.58822  1.0000
  O  Te47      1.0  0.11450  0.50659  0.83784  1.0000
  O  Te48      1.0  0.16269  0.46772  0.80934  1.0000
  H   H64       1.0  0.10646  0.37251  0.56329  1.0000
  Mg  Mg24      1.0  0.15462  0.51663  0.89835  1.0000
  C   C137      1.0  0.58234  0.07709  0.76218  1.0000
  C   C138      1.0  0.58333  0.04354  0.73651  1.0000
  C  Sn49      1.0  0.60960  0.03018  0.73166  1.0000
  C  Sn50      1.0  0.63333  0.05087  0.75299  1.0000
  C   C139      1.0  0.63212  0.08441  0.77872  1.0000
  C   C140      1.0  0.60574  0.09751  0.78330  1.0000
  H   H65       1.0  0.56193  0.08723  0.76582  1.0000
  O  Te49      1.0  0.61216  0.99661  0.70583  1.0000
  O  Te50      1.0  0.65983  0.03817  0.74876  1.0000
  H   H66       1.0  0.60347  0.12349  0.80329  1.0000
  Mg  Mg25      1.0  0.65266  0.99085  0.71001  1.0000
  C   C141      1.0  0.40223  0.92278  0.83332  1.0000
  C   C142      1.0  0.37402  0.92144  0.78521  1.0000
  C  Sn51      1.0  0.36345  0.94263  0.71523  1.0000
  C  Sn52      1.0  0.38150  0.96555  0.69312  1.0000
  C   C143      1.0  0.40968  0.96668  0.74154  1.0000
  C   C144      1.0  0.42004  0.94538  0.81149  1.0000
  H   H67       1.0  0.41025  0.90629  0.88735  1.0000
  O  Te51      1.0  0.33522  0.94097  0.66792  1.0000
  O  Te52      1.0  0.37148  0.98700  0.62344  1.0000
  H   H68       1.0  0.44188  0.94641  0.84862  1.0000
  Mg  Mg26      1.0  0.33142  0.97534  0.57863  1.0000
  C   C145      1.0  0.40268  0.08406  0.67629  1.0000
  C   C146      1.0  0.37771  0.08956  0.75562  1.0000
  C  Sn53      1.0  0.36862  0.07086  0.84311  1.0000
  C  Sn54      1.0  0.38686  0.04622  0.85114  1.0000
  C   C147      1.0  0.41180  0.04093  0.77146  1.0000
  C   C148      1.0  0.41874  0.05978  0.68421  1.0000
  H   H69       1.0  0.40807  0.09866  0.60886  1.0000
  O  Te53      1.0  0.34359  0.07666  0.92159  1.0000
  O  Te54      1.0  0.38023  0.02719  0.93778  1.0000
  H   H70       1.0  0.44003  0.05553  0.62290  1.0000
  Mg  Mg27      1.0  0.33243  0.95680  0.02434  1.0000
  C   C149      1.0  0.59579  0.91859  0.83192  1.0000
  C   C150      1.0  0.61925  0.90777  0.73793  1.0000
  C  Sn55      1.0  0.62736  0.92308  0.63603  1.0000
  C  Sn56      1.0  0.61165  0.94972  0.62838  1.0000
  C   C151      1.0  0.58822  0.96038  0.72300  1.0000
  C   C152      1.0  0.58028  0.94488  0.82451  1.0000
  H   H71       1.0  0.58965  0.90661  0.91054  1.0000
  O  Te55      1.0  0.65086  0.91194  0.54289  1.0000
  O  Te56      1.0  0.61929  0.96547  0.52762  1.0000
  H   H72       1.0  0.56212  0.95328  0.89736  1.0000
  Mg  Mg28      1.0  0.65293  0.94134  0.42404  1.0000
  C   C153      1.0  0.20046  0.66028  0.81042  1.0000
  C   C154      1.0  0.17175  0.66006  0.78237  1.0000
  C  Sn57      1.0  0.15949  0.68283  0.72814  1.0000
  C  Sn58      1.0  0.17633  0.70622  0.70158  1.0000
  C   C155      1.0  0.20503  0.70622  0.72988  1.0000
  C   C156      1.0  0.21708  0.68333  0.78418  1.0000
  H   H73       1.0  0.20979  0.64255  0.85235  1.0000
  O  Te57      1.0  0.13077  0.68228  0.70078  1.0000
  O  Te58      1.0  0.16461  0.72926  0.64734  1.0000
  H   H74       1.0  0.23931  0.68349  0.80579  1.0000
  Mg  Mg29      1.0  0.12451  0.71867  0.62731  1.0000
  C   C157      1.0  0.84117  0.30595  0.81384  1.0000
  C   C158      1.0  0.83962  0.32770  0.73496  1.0000
  C  Sn59      1.0  0.81418  0.33341  0.66839  1.0000
  C  Sn60      1.0  0.78987  0.31702  0.68125  1.0000
  C   C159      1.0  0.79164  0.29533  0.76051  1.0000
  C   C160      1.0  0.81720  0.28979  0.82664  1.0000
  H   H75       1.0  0.86095  0.30167  0.86509  1.0000
  O  Te59      1.0  0.81300  0.35520  0.58993  1.0000
  O  Te60      1.0  0.76418  0.32229  0.61587  1.0000
  H   H76       1.0  0.81839  0.27297  0.88780  1.0000
  Mg  Mg30      1.0  0.77318  0.35425  0.52038  1.0000
  C   C161      1.0  0.78763  0.66058  0.73433  1.0000
  C   C162      1.0  0.79093  0.69409  0.75906  1.0000
  C  Sn61      1.0  0.81716  0.70731  0.76050  1.0000
  C  Sn62      1.0  0.84048  0.68654  0.73667  1.0000
  C   C163      1.0  0.83696  0.65305  0.71191  1.0000
  C   C164      1.0  0.81062  0.64008  0.71075  1.0000
  H   H77       1.0  0.76725  0.65054  0.73334  1.0000
  O  Te61      1.0  0.82009  0.74084  0.78543  1.0000
  O  Te62      1.0  0.86693  0.69910  0.73747  1.0000
  H   H78       1.0  0.80807  0.61413  0.69149  1.0000
  Mg  Mg31      1.0  0.86036  0.74640  0.77625  1.0000
  C   C165      1.0  0.16158  0.30733  0.72819  1.0000
  C   C166      1.0  0.16494  0.33472  0.68938  1.0000
  C  Sn63      1.0  0.19076  0.34234  0.65037  1.0000
  C  Sn64      1.0  0.21361  0.32211  0.65029  1.0000
  C   C167      1.0  0.21003  0.29475  0.68917  1.0000
  C   C168      1.0  0.18409  0.28736  0.72807  1.0000
  H   H79       1.0  0.14151  0.30160  0.75820  1.0000
  O  Te63      1.0  0.19376  0.36981  0.61195  1.0000
  O  Te64      1.0  0.23965  0.32916  0.61171  1.0000
  H   H80       1.0  0.18149  0.26614  0.75801  1.0000
  Mg  Mg32      1.0  0.23336  0.36927  0.56771  1.0000
  C   C169      1.0  0.71164  0.17403  0.85343  1.0000
  C   C170      1.0  0.71071  0.19525  0.77151  1.0000
  C  Sn65      1.0  0.68593  0.19905  0.69084  1.0000
  C  Sn66      1.0  0.66167  0.18124  0.69247  1.0000
  C   C171      1.0  0.66281  0.16009  0.77488  1.0000
  C   C172      1.0  0.68772  0.15647  0.85516  1.0000
  H   H81       1.0  0.73091  0.17123  0.91563  1.0000
  O  Te65      1.0  0.68536  0.22034  0.60953  1.0000
  O  Te66      1.0  0.63662  0.18459  0.61290  1.0000
  H   H82       1.0  0.68843  0.14005  0.91867  1.0000
  Mg  Mg33      1.0  0.64631  0.21659  0.51893  1.0000
  C   C173      1.0  0.28212  0.83703  0.71622  1.0000
  C   C174      1.0  0.28622  0.80563  0.71741  1.0000
  C  Sn67      1.0  0.31256  0.79702  0.75737  1.0000
  C  Sn68      1.0  0.33517  0.82034  0.79686  1.0000
  C   C175      1.0  0.33084  0.85170  0.79544  1.0000
  C   C176      1.0  0.30440  0.86005  0.75522  1.0000
  H   H83       1.0  0.26166  0.84350  0.68520  1.0000
  O  Te67      1.0  0.31630  0.76554  0.75791  1.0000
  O  Te68      1.0  0.36171  0.81239  0.83731  1.0000
  H   H84       1.0  0.30122  0.88437  0.75442  1.0000
  Mg  Mg34      1.0  0.35637  0.76635  0.82107  1.0000
  C   C177      1.0  0.28605  0.17000  0.79270  1.0000
  C   C178      1.0  0.28962  0.20180  0.79546  1.0000
  C  Sn69      1.0  0.31544  0.21216  0.76992  1.0000
  C  Sn70      1.0  0.33806  0.19020  0.74105  1.0000
  C   C179      1.0  0.33427  0.15842  0.73840  1.0000
  C   C180      1.0  0.30835  0.14832  0.76417  1.0000
  H   H85       1.0  0.26599  0.16217  0.81253  1.0000
  O  Te69      1.0  0.31865  0.24402  0.77315  1.0000
  O  Te70      1.0  0.36409  0.19991  0.71509  1.0000
  H   H86       1.0  0.30558  0.12368  0.76191  1.0000
  Mg  Mg35      1.0  0.35813  0.24581  0.73112  1.0000
  C   C181      1.0  0.71265  0.83383  0.75721  1.0000
  C   C182      1.0  0.70971  0.80230  0.75854  1.0000
  C  Sn71      1.0  0.68347  0.78917  0.75780  1.0000
  C  Sn72      1.0  0.65978  0.80801  0.75564  1.0000
  C   C183      1.0  0.66294  0.83951  0.75420  1.0000
  C   C184      1.0  0.68929  0.85242  0.75501  1.0000
  H   H87       1.0  0.73304  0.84381  0.75774  1.0000
  O  Te71      1.0  0.68091  0.75764  0.75921  1.0000
  O  Te72      1.0  0.63331  0.79548  0.75479  1.0000
  H   H88       1.0  0.69156  0.87681  0.75387  1.0000
  Mg  Mg36      1.0  0.64046  0.75130  0.75738  1.0000
  C   C185      1.0  0.22208  0.77140  0.78263  1.0000
  C   C186      1.0  0.22392  0.73693  0.74208  1.0000
  C  Sn73      1.0  0.24903  0.72065  0.69870  1.0000
  C  Sn74      1.0  0.27269  0.73928  0.69603  1.0000
  C   C187      1.0  0.27064  0.77376  0.73692  1.0000
  C   C188      1.0  0.24541  0.78980  0.78009  1.0000
  H   H89       1.0  0.20256  0.78382  0.81612  1.0000
  O  Te73      1.0  0.25050  0.68620  0.65847  1.0000
  O  Te74      1.0  0.29805  0.72364  0.65320  1.0000
  H   H90       1.0  0.24399  0.81649  0.81159  1.0000
  Mg  Mg37      1.0  0.28966  0.67620  0.60816  1.0000
  C   C189      1.0  0.77726  0.23155  0.76791  1.0000
  C   C190      1.0  0.77503  0.26213  0.75555  1.0000
  C  Sn75      1.0  0.74914  0.27597  0.75299  1.0000
  C  Sn76      1.0  0.72508  0.25881  0.76306  1.0000
  C   C191      1.0  0.72754  0.22824  0.77551  1.0000
  C   C192      1.0  0.75354  0.21462  0.77791  1.0000
  H   H91       1.0  0.79738  0.22102  0.76986  1.0000
  O  Te75      1.0  0.74728  0.30654  0.74052  1.0000
  O  Te76      1.0  0.69896  0.27208  0.76083  1.0000
  H   H92       1.0  0.75526  0.19095  0.78760  1.0000
  Mg  Mg38      1.0  0.70707  0.31444  0.74220  1.0000
  C   C193      1.0  0.72712  0.73971  0.82661  1.0000
  C   C194      1.0  0.72768  0.76491  0.76970  1.0000
  C  Sn77      1.0  0.75079  0.76934  0.69242  1.0000
  C  Sn78      1.0  0.77372  0.74810  0.67188  1.0000
  C   C195      1.0  0.77295  0.72295  0.72915  1.0000
  C   C196      1.0  0.74973  0.71874  0.80635  1.0000
  H   H93       1.0  0.70915  0.73644  0.88626  1.0000
  O  Te77      1.0  0.75102  0.79465  0.63634  1.0000
  O  Te78      1.0  0.79708  0.75197  0.59503  1.0000
  H   H94       1.0  0.74929  0.69922  0.85030  1.0000
  Mg  Mg39      1.0  0.78757  0.79004  0.53950  1.0000
  C   C197      1.0  0.23460  0.22209  0.71987  1.0000
  C   C198      1.0  0.26310  0.22801  0.75714  1.0000
  C  Sn79      1.0  0.27487  0.25981  0.79561  1.0000
  C  Sn80      1.0  0.25774  0.28611  0.79673  1.0000
  C   C199      1.0  0.22924  0.27994  0.75939  1.0000
  C   C200      1.0  0.21768  0.24803  0.72102  1.0000
  H   H95       1.0  0.22565  0.19741  0.69028  1.0000
  O  Te79      1.0  0.30339  0.26529  0.83249  1.0000
  O  Te80      1.0  0.26896  0.31813  0.83481  1.0000
  H   H96       1.0  0.19561  0.24346  0.69228  1.0000
  Mg  Mg40      1.0  0.30896  0.31321  0.87658  1.0000
