data_image0
_chemical_formula_structural       H120C204S24N32SnCSn2CSnTe4Mg2SnCSn2CSnTe4Mg2SnCSn2CSnTe4Mg2SnCSn2CSnTe4Mg2SnCSn2CSnTe4Mg2SnCSn2CSnTe4Mg2SnCSn2CSnTe4Mg2SnCSn2CSnTe4Mg2SnCSn2CSnTe4Mg2SnCSn2CSnTe4Mg2SnCSn2CSnTe4Mg2SnCSn2CSnTe4Mg2SnCSn2CSnTe4Mg2SnCSn2CSnTe4Mg2SnCSn2CSnTe4Mg2SnCSn2CSnTe4Mg2SnCSn2CSnTe4Mg2SnCSn2CSnTe4Mg2SnCSn2CSnTe4Mg2SnCSn2CSnTe4Mg2SnCSn2CSnTe4Mg2SnCSn2CSnTe4Mg2SnCSn2CSnTe4Mg2SnCSn2CSnTe4Mg2
_chemical_formula_sum              "H120 C252 S24 N32 Sn96 Te96 Mg48"
_cell_length_a       10.344
_cell_length_b       87.8834
_cell_length_c       27.1818
_cell_angle_alpha    90.5872
_cell_angle_beta     90.5697
_cell_angle_gamma    90.2136

_symmetry_space_group_name_H-M    'P1'
_space_group_IT_number       1

loop_
  _space_group_symop_operation_xyz
  'x, y, z'

loop_
  _atom_site_type_symbol
  _atom_site_label
  _atom_site_symmetry_multiplicity
  _atom_site_fract_x
  _atom_site_fract_y
  _atom_site_fract_z
  _atom_site_occupancy
  H   H1        1.0  0.38568  0.80382  0.53678  1.0000
  H   H2        1.0  0.89161  0.69645  0.46574  1.0000
  H   H3        1.0  0.10339  0.69674  0.52957  1.0000
  H   H4        1.0  0.57221  0.83079  0.58294  1.0000
  H   H5        1.0  0.64983  0.19875  0.47704  1.0000
  H   H6        1.0  0.34362  0.78997  0.61417  1.0000
  H   H7        1.0  0.84204  0.70992  0.38771  1.0000
  H   H8        1.0  0.14861  0.71041  0.60782  1.0000
  H   H9        1.0  0.58894  0.81545  0.65849  1.0000
  H   H10       1.0  0.68711  0.21240  0.39923  1.0000
  H   H11       1.0  0.04024  0.82124  0.64974  1.0000
  H   H12       1.0  0.55826  0.67586  0.35017  1.0000
  H   H13       1.0  0.42667  0.67625  0.64751  1.0000
  H   H14       1.0  0.90762  0.79068  0.59600  1.0000
  H   H15       1.0  0.87500  0.17307  0.33896  1.0000
  H   H16       1.0  0.08285  0.83537  0.57221  1.0000
  H   H17       1.0  0.60998  0.66206  0.42743  1.0000
  H   H18       1.0  0.37805  0.66223  0.56880  1.0000
  H   H19       1.0  0.89256  0.80653  0.52066  1.0000
  H   H20       1.0  0.84897  0.15961  0.41803  1.0000
  H   H21       1.0  0.36205  0.84590  0.57498  1.0000
  H   H22       1.0  0.84680  0.15115  0.56380  1.0000
  H   H23       1.0  0.87740  0.65235  0.42817  1.0000
  H   H24       1.0  0.10895  0.65293  0.56655  1.0000
  H   H25       1.0  0.59915  0.15416  0.43519  1.0000
  H   H26       1.0  0.16896  0.84704  0.43410  1.0000
  H   H27       1.0  0.70731  0.65370  0.57231  1.0000
  H   H28       1.0  0.29567  0.65326  0.42567  1.0000
  H   H29       1.0  0.36342  0.87413  0.57784  1.0000
  H   H30       1.0  0.84149  0.12343  0.55785  1.0000
  H   H31       1.0  0.88447  0.62428  0.43125  1.0000
  H   H32       1.0  0.10597  0.62466  0.56490  1.0000
  H   H33       1.0  0.60220  0.12585  0.42758  1.0000
  H   H34       1.0  0.17223  0.87509  0.43645  1.0000
  H   H35       1.0  0.72332  0.62551  0.57619  1.0000
  H   H36       1.0  0.28448  0.62513  0.42252  1.0000
  H   H37       1.0  0.65297  0.80232  0.29766  1.0000
  H   H38       1.0  0.34630  0.19576  0.28287  1.0000
  H   H39       1.0  0.34926  0.80134  0.70784  1.0000
  H   H40       1.0  0.66744  0.19066  0.72531  1.0000
  H   H41       1.0  0.14825  0.30741  0.28057  1.0000
  H   H42       1.0  0.86225  0.70108  0.30031  1.0000
  H   H43       1.0  0.82001  0.30860  0.72933  1.0000
  H   H44       1.0  0.11874  0.70262  0.69394  1.0000
  H   H45       1.0  0.33655  0.19263  0.71203  1.0000
  H   H46       1.0  0.69814  0.80894  0.72522  1.0000
  H   H47       1.0  0.62681  0.19738  0.29243  1.0000
  H   H48       1.0  0.32814  0.80969  0.27828  1.0000
  H   H49       1.0  0.80730  0.68962  0.72240  1.0000
  H   H50       1.0  0.14725  0.30231  0.70508  1.0000
  H   H51       1.0  0.19150  0.68975  0.27478  1.0000
  H   H52       1.0  0.87479  0.30448  0.29339  1.0000
  H   H53       1.0  0.39547  0.19833  0.79422  1.0000
  H   H54       1.0  0.38832  0.80293  0.19635  1.0000
  H   H55       1.0  0.09775  0.29785  0.78921  1.0000
  H   H56       1.0  0.84771  0.69552  0.80884  1.0000
  H   H57       1.0  0.14740  0.69621  0.18834  1.0000
  H   H58       1.0  0.61972  0.19628  0.80745  1.0000
  H   H59       1.0  0.93536  0.70685  0.22026  1.0000
  H   H60       1.0  0.11930  0.30269  0.19528  1.0000
  H   H61       1.0  0.03765  0.70853  0.77329  1.0000
  H   H62       1.0  0.39518  0.21519  0.86785  1.0000
  H   H63       1.0  0.38737  0.78526  0.12529  1.0000
  H   H64       1.0  0.10647  0.28171  0.86327  1.0000
  H   H65       1.0  0.83992  0.71303  0.87983  1.0000
  H   H66       1.0  0.15410  0.71419  0.11928  1.0000
  H   H67       1.0  0.62071  0.21351  0.87956  1.0000
  H   H68       1.0  0.92538  0.72260  0.14524  1.0000
  H   H69       1.0  0.13030  0.28566  0.12237  1.0000
  H   H70       1.0  0.04858  0.72315  0.85138  1.0000
  H   H71       1.0  0.10915  0.24352  0.79708  1.0000
  H   H72       1.0  0.11343  0.75662  0.19961  1.0000
  H   H73       1.0  0.39934  0.25415  0.79507  1.0000
  H   H74       1.0  0.63308  0.74562  0.79121  1.0000
  H   H75       1.0  0.35071  0.74695  0.21237  1.0000
  H   H76       1.0  0.87188  0.24431  0.80185  1.0000
  H   H77       1.0  0.55863  0.74049  0.19119  1.0000
  H   H78       1.0  0.39436  0.25665  0.20146  1.0000
  H   H79       1.0  0.43102  0.73862  0.81462  1.0000
  H   H80       1.0  0.11387  0.22666  0.72369  1.0000
  H   H81       1.0  0.12159  0.77404  0.27173  1.0000
  H   H82       1.0  0.39259  0.27068  0.72130  1.0000
  H   H83       1.0  0.65077  0.72838  0.71941  1.0000
  H   H84       1.0  0.33397  0.72935  0.28260  1.0000
  H   H85       1.0  0.86246  0.22736  0.72921  1.0000
  H   H86       1.0  0.56541  0.72385  0.26548  1.0000
  H   H87       1.0  0.37901  0.27358  0.27448  1.0000
  H   H88       1.0  0.42427  0.72291  0.73821  1.0000
  H   H89       1.0  0.74898  0.92392  0.41403  1.0000
  H   H90       1.0  0.79948  0.07419  0.57917  1.0000
  H   H91       1.0  0.25749  0.42355  0.41480  1.0000
  H   H92       1.0  0.72840  0.57462  0.40805  1.0000
  H   H93       1.0  0.77824  0.41870  0.55337  1.0000
  H   H94       1.0  0.27423  0.57536  0.58884  1.0000
  H   H95       1.0  0.65405  0.91697  0.56535  1.0000
  H   H96       1.0  0.65156  0.08398  0.43474  1.0000
  H   H97       1.0  0.85458  0.58425  0.55626  1.0000
  H   H98       1.0  0.18587  0.41836  0.56887  1.0000
  H   H99       1.0  0.13505  0.58413  0.44272  1.0000
  H   H100      1.0  0.81381  0.42131  0.39659  1.0000
  H   H101      1.0  0.68525  0.95124  0.42158  1.0000
  H   H102      1.0  0.72298  0.04754  0.57094  1.0000
  H   H103      1.0  0.18562  0.45051  0.41951  1.0000
  H   H104      1.0  0.79000  0.54736  0.41812  1.0000
  H   H105      1.0  0.84107  0.44603  0.56155  1.0000
  H   H106      1.0  0.21311  0.54796  0.57907  1.0000
  H   H107      1.0  0.59468  0.94448  0.57365  1.0000
  H   H108      1.0  0.57503  0.05704  0.42610  1.0000
  H   H109      1.0  0.91381  0.55684  0.56633  1.0000
  H   H110      1.0  0.11821  0.44566  0.57407  1.0000
  H   H111      1.0  0.07736  0.55681  0.43211  1.0000
  H   H112      1.0  0.87951  0.44849  0.40417  1.0000
  H   H113      1.0  0.27064  0.39887  0.44860  1.0000
  H   H114      1.0  0.74965  0.60145  0.43615  1.0000
  H   H115      1.0  0.76522  0.39712  0.43344  1.0000
  H   H116      1.0  0.24645  0.60212  0.56157  1.0000
  H   H117      1.0  0.74559  0.89845  0.44461  1.0000
  H   H118      1.0  0.31545  0.10417  0.55675  1.0000
  H   H119      1.0  0.27741  0.89711  0.43753  1.0000
  H   H120      1.0  0.78609  0.10043  0.55304  1.0000
  C   C1        1.0  0.73747  0.75799  0.12012  1.0000
  C   C2        1.0  0.25760  0.24332  0.11486  1.0000
  C   C3        1.0  0.25553  0.75707  0.88315  1.0000
  C   C4        1.0  0.73257  0.24158  0.88704  1.0000
  C   C5        1.0  0.25785  0.25894  0.11471  1.0000
  C   C6        1.0  0.73640  0.74246  0.11978  1.0000
  C   C7        1.0  0.73838  0.25721  0.88651  1.0000
  C   C8        1.0  0.24702  0.74158  0.88302  1.0000
  C   C9        1.0  0.26162  0.24149  0.87960  1.0000
  C   C10       1.0  0.74273  0.75716  0.88371  1.0000
  C   C11       1.0  0.74495  0.24237  0.12081  1.0000
  C   C12       1.0  0.26477  0.75799  0.11760  1.0000
  C   C13       1.0  0.74054  0.74150  0.88341  1.0000
  C   C14       1.0  0.25663  0.25704  0.87823  1.0000
  C   C15       1.0  0.25785  0.74235  0.11857  1.0000
  C   C16       1.0  0.75259  0.25793  0.12136  1.0000
  C   C17       1.0  0.31093  0.80782  0.56151  1.0000
  C   C18       1.0  0.81942  0.69188  0.44020  1.0000
  C   C19       1.0  0.17252  0.69214  0.55582  1.0000
  C   C20       1.0  0.64798  0.82230  0.58689  1.0000
  C   C21       1.0  0.70159  0.19309  0.44747  1.0000
  C   C22       1.0  0.28786  0.80003  0.60493  1.0000
  C   C23       1.0  0.79186  0.69943  0.39663  1.0000
  C   C24       1.0  0.19876  0.69984  0.59974  1.0000
  C   C25       1.0  0.65835  0.81364  0.62918  1.0000
  C   C26       1.0  0.71931  0.20071  0.40343  1.0000
  C   C27       1.0  0.19110  0.80486  0.63748  1.0000
  C   C28       1.0  0.69813  0.69368  0.36338  1.0000
  C   C29       1.0  0.28851  0.69401  0.63396  1.0000
  C   C30       1.0  0.75393  0.80219  0.63361  1.0000
  C   C31       1.0  0.78360  0.19367  0.36409  1.0000
  C   C32       1.0  0.11683  0.81766  0.62507  1.0000
  C   C33       1.0  0.63133  0.68027  0.37555  1.0000
  C   C34       1.0  0.35459  0.68051  0.62176  1.0000
  C   C35       1.0  0.83483  0.79954  0.59294  1.0000
  C   C36       1.0  0.82819  0.17870  0.36987  1.0000
  C   C37       1.0  0.14016  0.82544  0.58162  1.0000
  C   C38       1.0  0.66029  0.67258  0.41877  1.0000
  C   C39       1.0  0.32795  0.67277  0.57782  1.0000
  C   C40       1.0  0.82640  0.80840  0.55100  1.0000
  C   C41       1.0  0.81315  0.17118  0.41434  1.0000
  C   C42       1.0  0.23731  0.82062  0.54926  1.0000
  C   C43       1.0  0.75446  0.67836  0.45174  1.0000
  C   C44       1.0  0.23579  0.67850  0.54443  1.0000
  C   C45       1.0  0.73351  0.82002  0.54745  1.0000
  C   C46       1.0  0.75097  0.17835  0.45427  1.0000
  C   C47       1.0  0.32082  0.85229  0.54471  1.0000
  C   C48       1.0  0.79137  0.14573  0.53425  1.0000
  C   C49       1.0  0.84022  0.64651  0.46019  1.0000
  C   C50       1.0  0.14973  0.64676  0.53555  1.0000
  C   C51       1.0  0.65202  0.14743  0.46188  1.0000
  C   C52       1.0  0.21344  0.85298  0.46520  1.0000
  C   C53       1.0  0.74606  0.64729  0.54146  1.0000
  C   C54       1.0  0.25331  0.64706  0.45591  1.0000
  C   C55       1.0  0.32124  0.86808  0.54645  1.0000
  C   C56       1.0  0.78870  0.12996  0.53075  1.0000
  C   C57       1.0  0.84224  0.63069  0.46152  1.0000
  C   C58       1.0  0.15009  0.63094  0.53498  1.0000
  C   C59       1.0  0.65392  0.13166  0.45741  1.0000
  C   C60       1.0  0.21599  0.86880  0.46660  1.0000
  C   C61       1.0  0.75447  0.63158  0.54369  1.0000
  C   C62       1.0  0.24775  0.63134  0.45419  1.0000
  C   C63       1.0  0.74245  0.79570  0.29440  1.0000
  C   C64       1.0  0.27564  0.20506  0.28512  1.0000
  C   C65       1.0  0.25789  0.79507  0.71191  1.0000
  C   C66       1.0  0.72007  0.20136  0.71934  1.0000
  C   C67       1.0  0.22250  0.29849  0.28440  1.0000
  C   C68       1.0  0.76378  0.70501  0.29173  1.0000
  C   C69       1.0  0.77754  0.29730  0.72156  1.0000
  C   C70       1.0  0.21780  0.70569  0.70519  1.0000
  C   C71       1.0  0.26965  0.20230  0.70935  1.0000
  C   C72       1.0  0.73920  0.79757  0.71822  1.0000
  C   C73       1.0  0.71950  0.20345  0.28895  1.0000
  C   C74       1.0  0.27768  0.79880  0.28372  1.0000
  C   C75       1.0  0.76981  0.70115  0.71563  1.0000
  C   C76       1.0  0.23353  0.29500  0.70698  1.0000
  C   C77       1.0  0.22539  0.70142  0.28267  1.0000
  C   C78       1.0  0.80073  0.29550  0.29418  1.0000
  C   C79       1.0  0.33328  0.20829  0.79523  1.0000
  C   C80       1.0  0.33067  0.79256  0.19731  1.0000
  C   C81       1.0  0.16470  0.28835  0.79079  1.0000
  C   C82       1.0  0.80189  0.70659  0.80485  1.0000
  C   C83       1.0  0.19037  0.70742  0.19409  1.0000
  C   C84       1.0  0.67228  0.20705  0.80626  1.0000
  C   C85       1.0  0.85177  0.71403  0.21341  1.0000
  C   C86       1.0  0.17745  0.29241  0.19675  1.0000
  C   C87       1.0  0.12492  0.71489  0.78289  1.0000
  C   C88       1.0  0.33257  0.21775  0.83662  1.0000
  C   C89       1.0  0.32917  0.78262  0.15725  1.0000
  C   C90       1.0  0.16949  0.27928  0.83240  1.0000
  C   C91       1.0  0.79689  0.71649  0.84506  1.0000
  C   C92       1.0  0.19485  0.71749  0.15492  1.0000
  C   C93       1.0  0.67349  0.21680  0.84684  1.0000
  C   C94       1.0  0.84567  0.72275  0.17102  1.0000
  C   C95       1.0  0.18447  0.28289  0.15564  1.0000
  C   C96       1.0  0.13126  0.72305  0.82700  1.0000
  C   C97       1.0  0.25586  0.23097  0.83738  1.0000
  C   C98       1.0  0.25642  0.76899  0.15829  1.0000
  C   C99       1.0  0.25246  0.26664  0.83422  1.0000
  C   C100      1.0  0.74071  0.73105  0.84099  1.0000
  C   C101      1.0  0.24967  0.73215  0.16072  1.0000
  C   C102      1.0  0.73979  0.23088  0.84547  1.0000
  C   C103      1.0  0.74087  0.73259  0.16338  1.0000
  C   C104      1.0  0.25850  0.26945  0.15713  1.0000
  C   C105      1.0  0.24101  0.73190  0.83831  1.0000
  C   C106      1.0  0.17357  0.23377  0.79658  1.0000
  C   C107      1.0  0.17735  0.76646  0.19950  1.0000
  C   C108      1.0  0.33378  0.26377  0.79371  1.0000
  C   C109      1.0  0.68337  0.73486  0.79520  1.0000
  C   C110      1.0  0.30283  0.73602  0.20739  1.0000
  C   C111      1.0  0.81222  0.23413  0.80289  1.0000
  C   C112      1.0  0.63959  0.73289  0.19762  1.0000
  C   C113      1.0  0.33170  0.26655  0.20025  1.0000
  C   C114      1.0  0.34600  0.73179  0.80574  1.0000
  C   C115      1.0  0.17548  0.22439  0.75539  1.0000
  C   C116      1.0  0.18143  0.77616  0.23987  1.0000
  C   C117      1.0  0.33004  0.27294  0.75251  1.0000
  C   C118      1.0  0.69206  0.72522  0.75483  1.0000
  C   C119      1.0  0.29557  0.72614  0.24656  1.0000
  C   C120      1.0  0.80825  0.22462  0.76207  1.0000
  C   C121      1.0  0.64328  0.72365  0.23886  1.0000
  C   C122      1.0  0.32303  0.27596  0.24135  1.0000
  C   C123      1.0  0.34207  0.72305  0.76288  1.0000
  C   C124      1.0  0.25802  0.21169  0.75352  1.0000
  C   C125      1.0  0.26174  0.78918  0.24020  1.0000
  C   C126      1.0  0.24416  0.28534  0.75025  1.0000
  C   C127      1.0  0.75384  0.71096  0.75856  1.0000
  C   C128      1.0  0.23792  0.71160  0.24100  1.0000
  C   C129      1.0  0.73478  0.21106  0.76251  1.0000
  C   C130      1.0  0.75095  0.71431  0.24772  1.0000
  C   C131      1.0  0.24251  0.28888  0.24084  1.0000
  C   C132      1.0  0.23018  0.71463  0.75056  1.0000
  C   C133      1.0  0.71678  0.92853  0.44914  1.0000
  C   C134      1.0  0.75257  0.07041  0.54517  1.0000
  C   C135      1.0  0.22883  0.42847  0.44986  1.0000
  C   C136      1.0  0.76815  0.57070  0.44294  1.0000
  C   C137      1.0  0.79737  0.42553  0.52115  1.0000
  C   C138      1.0  0.23256  0.57120  0.55429  1.0000
  C   C139      1.0  0.66298  0.92468  0.53457  1.0000
  C   C140      1.0  0.66830  0.07577  0.46373  1.0000
  C   C141      1.0  0.83877  0.57603  0.52665  1.0000
  C   C142      1.0  0.18901  0.42566  0.53687  1.0000
  C   C143      1.0  0.15365  0.57605  0.47190  1.0000
  C   C144      1.0  0.81787  0.42683  0.43264  1.0000
  C   C145      1.0  0.68179  0.94380  0.45329  1.0000
  C   C146      1.0  0.71003  0.05539  0.54065  1.0000
  C   C147      1.0  0.18863  0.44357  0.45236  1.0000
  C   C148      1.0  0.80112  0.55539  0.44861  1.0000
  C   C149      1.0  0.83309  0.44071  0.52533  1.0000
  C   C150      1.0  0.19921  0.55584  0.54880  1.0000
  C   C151      1.0  0.63015  0.93993  0.53897  1.0000
  C   C152      1.0  0.62582  0.06085  0.45923  1.0000
  C   C153      1.0  0.87116  0.56087  0.53221  1.0000
  C   C154      1.0  0.15044  0.44075  0.53947  1.0000
  C   C155      1.0  0.12290  0.56081  0.46603  1.0000
  C   C156      1.0  0.85451  0.44210  0.43682  1.0000
  C   C157      1.0  0.72448  0.74986  0.02697  1.0000
  C   C158      1.0  0.26324  0.25073  0.02171  1.0000
  C   C159      1.0  0.27057  0.74927  0.97545  1.0000
  C   C160      1.0  0.72463  0.25014  0.97912  1.0000
  C   C161      1.0  0.26774  0.25037  0.97171  1.0000
  C   C162      1.0  0.72964  0.74959  0.97688  1.0000
  C   C163      1.0  0.73335  0.25025  0.02895  1.0000
  C   C164      1.0  0.27791  0.74932  0.02546  1.0000
  C   C165      1.0  0.56263  0.03654  0.49817  1.0000
  C   C166      1.0  0.42607  0.96359  0.49872  1.0000
  C   C167      1.0  0.43106  0.03701  0.49981  1.0000
  C   C168      1.0  0.55773  0.96384  0.49911  1.0000
  C   C169      1.0  0.06377  0.53619  0.50334  1.0000
  C   C170      1.0  0.93753  0.46367  0.49025  1.0000
  C   C171      1.0  0.93271  0.53611  0.49632  1.0000
  C   C172      1.0  0.06778  0.46392  0.49741  1.0000
  C   C173      1.0  0.27003  0.87667  0.50742  1.0000
  C   C174      1.0  0.72129  0.12263  0.49172  1.0000
  C   C175      1.0  0.79784  0.62290  0.50327  1.0000
  C   C176      1.0  0.20045  0.62296  0.49413  1.0000
  C   C177      1.0  0.26577  0.84446  0.50421  1.0000
  C   C178      1.0  0.72441  0.15466  0.49962  1.0000
  C   C179      1.0  0.78920  0.65506  0.49960  1.0000
  C   C180      1.0  0.20361  0.65503  0.49658  1.0000
  C   C181      1.0  0.71921  0.90224  0.48194  1.0000
  C   C182      1.0  0.29109  0.09940  0.52017  1.0000
  C   C183      1.0  0.27578  0.90141  0.47579  1.0000
  C   C184      1.0  0.74858  0.09719  0.51633  1.0000
  C   C185      1.0  0.24236  0.40277  0.48553  1.0000
  C   C186      1.0  0.77865  0.59772  0.47322  1.0000
  C   C187      1.0  0.77567  0.40176  0.47111  1.0000
  C   C188      1.0  0.21805  0.59807  0.52453  1.0000
  C   C189      1.0  0.63211  0.94947  0.49767  1.0000
  C   C190      1.0  0.64005  0.05070  0.49871  1.0000
  C   C191      1.0  0.14310  0.44963  0.49676  1.0000
  C   C192      1.0  0.86053  0.55056  0.49234  1.0000
  C   C193      1.0  0.86736  0.44904  0.48337  1.0000
  C   C194      1.0  0.13666  0.55067  0.50556  1.0000
  C   C195      1.0  0.70207  0.91860  0.48898  1.0000
  C   C196      1.0  0.72702  0.08097  0.50779  1.0000
  C   C197      1.0  0.22337  0.41910  0.49140  1.0000
  C   C198      1.0  0.79294  0.58135  0.48099  1.0000
  C   C199      1.0  0.79374  0.41821  0.47491  1.0000
  C   C200      1.0  0.20334  0.58167  0.51696  1.0000
  C   C201      1.0  0.48966  0.00799  0.49822  1.0000
  C   C202      1.0  0.48889  0.99245  0.49890  1.0000
  C   C203      1.0  0.99549  0.50767  0.50626  1.0000
  C   C204      1.0  0.99628  0.49217  0.50511  1.0000
  S   S1        1.0  0.72020  0.73320  0.06254  1.0000
  S   S2        1.0  0.26139  0.26768  0.05674  1.0000
  S   S3        1.0  0.25937  0.73241  0.93992  1.0000
  S   S4        1.0  0.72268  0.26669  0.94372  1.0000
  S   S5        1.0  0.26190  0.23406  0.05706  1.0000
  S   S6        1.0  0.71986  0.76683  0.06228  1.0000
  S   S7        1.0  0.70771  0.23321  0.94493  1.0000
  S   S8        1.0  0.27754  0.76612  0.94082  1.0000
  S   S9        1.0  0.26766  0.26679  0.93511  1.0000
  S   S10       1.0  0.72839  0.73267  0.94141  1.0000
  S   S11       1.0  0.74531  0.26711  0.06419  1.0000
  S   S12       1.0  0.27658  0.73283  0.06133  1.0000
  S   S13       1.0  0.73392  0.76623  0.94165  1.0000
  S   S14       1.0  0.27866  0.23320  0.93804  1.0000
  S   S15       1.0  0.29437  0.76618  0.05991  1.0000
  S   S16       1.0  0.72971  0.23336  0.06305  1.0000
  S   S17       1.0  0.63555  0.01857  0.49570  1.0000
  S   S18       1.0  0.34640  0.98121  0.49870  1.0000
  S   S19       1.0  0.34915  0.01946  0.49953  1.0000
  S   S20       1.0  0.63379  0.98170  0.49932  1.0000
  S   S21       1.0  0.13788  0.51864  0.51492  1.0000
  S   S22       1.0  0.85507  0.48099  0.49696  1.0000
  S   S23       1.0  0.85291  0.51852  0.49995  1.0000
  S   S24       1.0  0.13938  0.48150  0.51282  1.0000
  N   N1        1.0  0.82958  0.79646  0.32852  1.0000
  N   N2        1.0  0.20993  0.20748  0.32450  1.0000
  N   N3        1.0  0.16528  0.79652  0.68004  1.0000
  N   N4        1.0  0.76560  0.20527  0.67700  1.0000
  N   N5        1.0  0.28865  0.29683  0.32452  1.0000
  N   N6        1.0  0.66815  0.70130  0.31956  1.0000
  N   N7        1.0  0.74231  0.29297  0.67773  1.0000
  N   N8        1.0  0.31502  0.70143  0.67892  1.0000
  N   N9        1.0  0.20787  0.20533  0.66907  1.0000
  N   N10       1.0  0.77263  0.79300  0.67474  1.0000
  N   N11       1.0  0.80958  0.20208  0.32156  1.0000
  N   N12       1.0  0.23690  0.79439  0.32622  1.0000
  N   N13       1.0  0.73951  0.70593  0.67209  1.0000
  N   N14       1.0  0.31875  0.29513  0.67255  1.0000
  N   N15       1.0  0.25397  0.70607  0.32690  1.0000
  N   N16       1.0  0.73288  0.29316  0.33340  1.0000
  N   N17       1.0  0.70101  0.89292  0.51767  1.0000
  N   N18       1.0  0.26804  0.10796  0.48271  1.0000
  N   N19       1.0  0.27450  0.89247  0.51321  1.0000
  N   N20       1.0  0.71392  0.10695  0.48356  1.0000
  N   N21       1.0  0.21919  0.39347  0.52106  1.0000
  N   N22       1.0  0.80001  0.60719  0.50909  1.0000
  N   N23       1.0  0.77541  0.39335  0.50988  1.0000
  N   N24       1.0  0.19947  0.60724  0.48835  1.0000
  N   N25       1.0  0.21013  0.32950  0.50219  1.0000
  N   N26       1.0  0.78149  0.67111  0.49735  1.0000
  N   N27       1.0  0.76257  0.32905  0.50687  1.0000
  N   N28       1.0  0.20829  0.67109  0.49862  1.0000
  N   N29       1.0  0.72497  0.82894  0.50428  1.0000
  N   N30       1.0  0.29331  0.17201  0.49386  1.0000
  N   N31       1.0  0.25945  0.82835  0.50392  1.0000
  N   N32       1.0  0.73761  0.17080  0.50031  1.0000
  C  Sn1       1.0  0.36256  0.32204  0.41993  1.0000
  C   C205      1.0  0.24670  0.32544  0.44359  1.0000
  C  Sn2       1.0  0.13358  0.31747  0.43141  1.0000
  C  Sn3       1.0  0.13633  0.30585  0.39483  1.0000
  C   C206      1.0  0.25213  0.30246  0.37120  1.0000
  C  Sn4       1.0  0.36531  0.31043  0.38335  1.0000
  O  Te1       1.0  0.47448  0.33016  0.43270  1.0000
  O  Te2       1.0  0.01891  0.32107  0.45556  1.0000
  O  Te3       1.0  0.02427  0.29773  0.38207  1.0000
  O  Te4       1.0  0.47993  0.30683  0.35923  1.0000
  Mg  Mg1       1.0  0.89180  0.30681  0.42534  1.0000
  Mg  Mg2       1.0  0.60710  0.32108  0.38944  1.0000
  C  Sn5       1.0  0.64853  0.78245  0.83181  1.0000
  C   C207      1.0  0.71161  0.76849  0.83616  1.0000
  C  Sn6       1.0  0.81093  0.76459  0.80401  1.0000
  C  Sn7       1.0  0.84804  0.77486  0.76675  1.0000
  C   C208      1.0  0.78499  0.78881  0.76242  1.0000
  C  Sn8       1.0  0.68563  0.79272  0.79455  1.0000
  O  Te5       1.0  0.54950  0.78612  0.86436  1.0000
  O  Te6       1.0  0.87254  0.75056  0.80907  1.0000
  O  Te7       1.0  0.94715  0.77118  0.73419  1.0000
  O  Te8       1.0  0.62406  0.80674  0.78951  1.0000
  Mg  Mg3       1.0  0.00192  0.75074  0.75589  1.0000
  Mg  Mg4       1.0  0.49472  0.80658  0.84269  1.0000
  C  Sn9       1.0  0.84730  0.82703  0.41162  1.0000
  C   C209      1.0  0.74781  0.82472  0.44518  1.0000
  C  Sn10      1.0  0.67846  0.81105  0.44489  1.0000
  C  Sn11      1.0  0.70925  0.79944  0.41037  1.0000
  C   C210      1.0  0.80870  0.80175  0.37685  1.0000
  C  Sn12      1.0  0.87808  0.81542  0.37710  1.0000
  O  Te9       1.0  0.91535  0.84078  0.41258  1.0000
  O  Te10      1.0  0.57938  0.80900  0.47878  1.0000
  O  Te11      1.0  0.64109  0.78568  0.40944  1.0000
  O  Te12      1.0  0.97712  0.81746  0.34324  1.0000
  Mg  Mg5       1.0  0.51454  0.78828  0.46299  1.0000
  Mg  Mg6       1.0  0.04207  0.83818  0.35902  1.0000
  C  Sn13      1.0  0.17656  0.29952  0.58596  1.0000
  C   C211      1.0  0.28598  0.30017  0.61649  1.0000
  C  Sn14      1.0  0.37162  0.31246  0.61398  1.0000
  C  Sn15      1.0  0.34735  0.32435  0.58028  1.0000
  C   C212      1.0  0.23798  0.32370  0.54978  1.0000
  C  Sn16      1.0  0.15229  0.31141  0.55225  1.0000
  O  Te13      1.0  0.09225  0.28713  0.58909  1.0000
  O  Te14      1.0  0.48039  0.31285  0.64487  1.0000
  O  Te15      1.0  0.43178  0.33675  0.57717  1.0000
  O  Te16      1.0  0.04358  0.31101  0.52139  1.0000
  Mg  Mg7       1.0  0.56664  0.33214  0.62692  1.0000
  Mg  Mg8       1.0  0.95722  0.29174  0.53933  1.0000
  C  Sn17      1.0  0.85084  0.30477  0.44787  1.0000
  C   C213      1.0  0.80697  0.31962  0.45542  1.0000
  C  Sn18      1.0  0.71774  0.32604  0.42287  1.0000
  C  Sn19      1.0  0.67132  0.31743  0.38191  1.0000
  C   C214      1.0  0.71517  0.30259  0.37438  1.0000
  C  Sn20      1.0  0.80442  0.29616  0.40692  1.0000
  O  Te17      1.0  0.94005  0.29858  0.48089  1.0000
  O  Te18      1.0  0.67533  0.34092  0.43118  1.0000
  O  Te19      1.0  0.58204  0.32363  0.34888  1.0000
  O  Te20      1.0  0.84680  0.28130  0.39863  1.0000
  Mg  Mg9       1.0  0.55323  0.34434  0.37587  1.0000
  Mg  Mg10      1.0  0.96885  0.27786  0.45392  1.0000
  C  Sn21      1.0  0.37791  0.19369  0.59825  1.0000
  C   C215      1.0  0.26248  0.19946  0.61697  1.0000
  C  Sn22      1.0  0.14358  0.19426  0.59855  1.0000
  C  Sn23      1.0  0.13997  0.18305  0.56065  1.0000
  C   C216      1.0  0.25535  0.17728  0.54196  1.0000
  C  Sn24      1.0  0.37430  0.18248  0.56035  1.0000
  O  Te21      1.0  0.49567  0.19906  0.61722  1.0000
  O  Te22      1.0  0.02946  0.20020  0.61784  1.0000
  O  Te23      1.0  0.02208  0.17768  0.54169  1.0000
  O  Te24      1.0  0.48837  0.17654  0.54109  1.0000
  Mg  Mg11      1.0  0.89294  0.18926  0.57995  1.0000
  Mg  Mg12      1.0  0.62494  0.18747  0.57896  1.0000
  C  Sn25      1.0  0.69698  0.78651  0.16851  1.0000
  C   C217      1.0  0.76563  0.77313  0.15942  1.0000
  C  Sn26      1.0  0.82281  0.76521  0.19821  1.0000
  C  Sn27      1.0  0.81107  0.77078  0.24711  1.0000
  C   C218      1.0  0.74244  0.78416  0.25618  1.0000
  C  Sn28      1.0  0.68524  0.79209  0.21741  1.0000
  O  Te25      1.0  0.64060  0.79424  0.12917  1.0000
  O  Te26      1.0  0.89099  0.75185  0.18821  1.0000
  O  Te27      1.0  0.86752  0.76304  0.28646  1.0000
  O  Te28      1.0  0.61707  0.80543  0.22740  1.0000
  Mg  Mg13      1.0  0.95056  0.74537  0.25416  1.0000
  Mg  Mg14      1.0  0.55741  0.81192  0.16148  1.0000
  C  Sn29      1.0  0.37703  0.19543  0.39517  1.0000
  C   C219      1.0  0.26933  0.19568  0.36374  1.0000
  C  Sn30      1.0  0.15248  0.18915  0.37810  1.0000
  C  Sn31      1.0  0.14303  0.18224  0.42486  1.0000
  C   C220      1.0  0.25067  0.18200  0.45626  1.0000
  C  Sn32      1.0  0.36758  0.18852  0.44193  1.0000
  O  Te29      1.0  0.49287  0.20203  0.38006  1.0000
  O  Te30      1.0  0.04615  0.18953  0.34603  1.0000
  O  Te31      1.0  0.02706  0.17564  0.43995  1.0000
  O  Te32      1.0  0.47386  0.18815  0.47397  1.0000
  Mg  Mg15      1.0  0.90931  0.17903  0.38330  1.0000
  Mg  Mg16      1.0  0.61072  0.19865  0.43675  1.0000
  C  Sn33      1.0  0.64098  0.86571  0.46677  1.0000
  C   C221      1.0  0.66985  0.87538  0.50654  1.0000
  C  Sn34      1.0  0.73653  0.86991  0.54761  1.0000
  C  Sn35      1.0  0.77524  0.85445  0.54895  1.0000
  C   C222      1.0  0.74640  0.84479  0.50919  1.0000
  C  Sn36      1.0  0.67970  0.85025  0.46810  1.0000
  O  Te33      1.0  0.57424  0.87142  0.42609  1.0000
  O  Te34      1.0  0.76424  0.87979  0.58694  1.0000
  O  Te35      1.0  0.84203  0.84874  0.58967  1.0000
  O  Te36      1.0  0.65200  0.84038  0.42879  1.0000
  Mg  Mg17      1.0  0.85732  0.86665  0.63413  1.0000
  Mg  Mg18      1.0  0.55900  0.85351  0.38157  1.0000
  C  Sn37      1.0  0.86322  0.22998  0.20751  1.0000
  C   C223      1.0  0.78500  0.22965  0.16530  1.0000
  C  Sn38      1.0  0.66865  0.22153  0.16473  1.0000
  C  Sn39      1.0  0.62963  0.21357  0.20726  1.0000
  C   C224      1.0  0.70782  0.21390  0.24944  1.0000
  C  Sn40      1.0  0.82420  0.22202  0.25004  1.0000
  O  Te37      1.0  0.97914  0.23817  0.20725  1.0000
  O  Te38      1.0  0.59209  0.22136  0.12209  1.0000
  O  Te39      1.0  0.51361  0.20537  0.20749  1.0000
  O  Te40      1.0  0.90072  0.22219  0.29265  1.0000
  Mg  Mg19      1.0  0.44255  0.20858  0.14053  1.0000
  Mg  Mg20      1.0  0.05024  0.23497  0.27426  1.0000
  C  Sn41      1.0  0.15235  0.80145  0.41700  1.0000
  C   C225      1.0  0.21979  0.80456  0.37393  1.0000
  C  Sn42      1.0  0.32252  0.81492  0.37462  1.0000
  C  Sn43      1.0  0.35866  0.82233  0.41929  1.0000
  C   C226      1.0  0.29125  0.81923  0.46233  1.0000
  C  Sn44      1.0  0.18848  0.80887  0.46167  1.0000
  O  Te41      1.0  0.04996  0.79105  0.41545  1.0000
  O  Te42      1.0  0.38846  0.81784  0.33108  1.0000
  O  Te43      1.0  0.46113  0.83274  0.42081  1.0000
  O  Te44      1.0  0.12258  0.80594  0.50517  1.0000
  Mg  Mg21      1.0  0.52127  0.83292  0.35191  1.0000
  Mg  Mg22      1.0  0.98981  0.79086  0.48439  1.0000
  C  Sn45      1.0  0.77715  0.20265  0.57686  1.0000
  C   C227      1.0  0.72548  0.19859  0.62220  1.0000
  C  Sn46      1.0  0.69233  0.18347  0.63144  1.0000
  C  Sn47      1.0  0.71128  0.17217  0.59461  1.0000
  C   C228      1.0  0.76294  0.17624  0.54930  1.0000
  C  Sn48      1.0  0.79610  0.19136  0.54002  1.0000
  O  Te45      1.0  0.80961  0.21784  0.56842  1.0000
  O  Te46      1.0  0.64079  0.17968  0.67705  1.0000
  O  Te47      1.0  0.67877  0.15698  0.60308  1.0000
  O  Te48      1.0  0.84763  0.19514  0.49444  1.0000
  Mg  Mg23      1.0  0.61172  0.15746  0.67102  1.0000
  Mg  Mg24      1.0  0.87680  0.21736  0.50045  1.0000
  C  Sn49      1.0  0.88554  0.68606  0.61189  1.0000
  C   C229      1.0  0.79762  0.69753  0.62373  1.0000
  C  Sn50      1.0  0.68660  0.69963  0.59495  1.0000
  C  Sn51      1.0  0.66292  0.69005  0.55349  1.0000
  C   C230      1.0  0.75080  0.67859  0.54167  1.0000
  C  Sn52      1.0  0.86187  0.67648  0.57043  1.0000
  O  Te49      1.0  0.99589  0.68417  0.64118  1.0000
  O  Te50      1.0  0.60013  0.71117  0.60750  1.0000
  O  Te51      1.0  0.55247  0.69195  0.52419  1.0000
  O  Te52      1.0  0.94829  0.66494  0.55790  1.0000
  Mg  Mg25      1.0  0.46352  0.70925  0.55626  1.0000
  Mg  Mg26      1.0  0.08489  0.66685  0.60913  1.0000
  C  Sn53      1.0  0.65459  0.26861  0.21310  1.0000
  C   C231      1.0  0.71997  0.27014  0.16867  1.0000
  C  Sn54      1.0  0.83079  0.27922  0.16613  1.0000
  C  Sn55      1.0  0.87728  0.28692  0.20890  1.0000
  C   C232      1.0  0.81194  0.28539  0.25330  1.0000
  C  Sn56      1.0  0.70109  0.27631  0.25587  1.0000
  O  Te53      1.0  0.54401  0.25947  0.21479  1.0000
  O  Te54      1.0  0.89447  0.28058  0.12129  1.0000
  O  Te55      1.0  0.98796  0.29607  0.20717  1.0000
  O  Te56      1.0  0.63743  0.27495  0.30068  1.0000
  Mg  Mg27      1.0  0.04110  0.29433  0.13759  1.0000
  Mg  Mg28      1.0  0.49085  0.26120  0.28442  1.0000
  C  Sn57      1.0  0.24442  0.35785  0.46009  1.0000
  C   C233      1.0  0.24604  0.34733  0.49828  1.0000
  C  Sn58      1.0  0.22041  0.35198  0.54649  1.0000
  C  Sn59      1.0  0.19249  0.36747  0.55674  1.0000
  C   C234      1.0  0.19085  0.37799  0.51857  1.0000
  C  Sn60      1.0  0.21650  0.37335  0.47034  1.0000
  O  Te57      1.0  0.27032  0.35295  0.41217  1.0000
  O  Te58      1.0  0.22264  0.34125  0.58406  1.0000
  O  Te59      1.0  0.16658  0.37237  0.60471  1.0000
  O  Te60      1.0  0.21426  0.38407  0.43279  1.0000
  Mg  Mg29      1.0  0.18098  0.35347  0.64336  1.0000
  Mg  Mg30      1.0  0.25583  0.37185  0.37348  1.0000
  C  Sn61      1.0  0.75490  0.36599  0.55714  1.0000
  C   C235      1.0  0.80431  0.37554  0.52104  1.0000
  C  Sn62      1.0  0.82737  0.36994  0.47366  1.0000
  C  Sn63      1.0  0.80040  0.35447  0.46212  1.0000
  C   C236      1.0  0.75100  0.34493  0.49821  1.0000
  C  Sn64      1.0  0.72793  0.35052  0.54560  1.0000
  O  Te61      1.0  0.73259  0.37183  0.60426  1.0000
  O  Te62      1.0  0.87684  0.37971  0.43819  1.0000
  O  Te63      1.0  0.82276  0.34863  0.41496  1.0000
  O  Te64      1.0  0.67846  0.34076  0.58106  1.0000
  Mg  Mg31      1.0  0.89086  0.36642  0.37926  1.0000
  Mg  Mg32      1.0  0.66435  0.35404  0.63999  1.0000
  C  Sn65      1.0  0.64698  0.30694  0.56573  1.0000
  C   C237      1.0  0.71542  0.32038  0.55712  1.0000
  C  Sn66      1.0  0.81898  0.32463  0.58770  1.0000
  C  Sn67      1.0  0.85493  0.31526  0.62771  1.0000
  C   C238      1.0  0.78652  0.30184  0.63630  1.0000
  C  Sn68      1.0  0.68293  0.29757  0.60574  1.0000
  O  Te65      1.0  0.54379  0.30290  0.53469  1.0000
  O  Te66      1.0  0.88591  0.33812  0.57837  1.0000
  O  Te67      1.0  0.95821  0.31931  0.65876  1.0000
  O  Te68      1.0  0.61603  0.28409  0.61505  1.0000
  Mg  Mg33      1.0  0.01957  0.33875  0.63100  1.0000
  Mg  Mg34      1.0  0.48241  0.28345  0.56243  1.0000
  C  Sn69      1.0  0.31742  0.78472  0.83506  1.0000
  C   C239      1.0  0.23977  0.77205  0.84440  1.0000
  C  Sn70      1.0  0.17232  0.76476  0.80607  1.0000
  C  Sn71      1.0  0.18276  0.77024  0.75737  1.0000
  C   C240      1.0  0.26038  0.78291  0.74805  1.0000
  C  Sn72      1.0  0.32786  0.79020  0.78636  1.0000
  O  Te69      1.0  0.38400  0.79183  0.87394  1.0000
  O  Te70      1.0  0.09526  0.75211  0.81632  1.0000
  O  Te71      1.0  0.11610  0.76312  0.71848  1.0000
  O  Te72      1.0  0.40490  0.80284  0.77613  1.0000
  Mg  Mg35      1.0  0.02345  0.74630  0.75097  1.0000
  Mg  Mg36      1.0  0.47680  0.80866  0.84144  1.0000
  C  Sn73      1.0  0.29037  0.21428  0.15795  1.0000
  C   C241      1.0  0.23179  0.22851  0.15343  1.0000
  C  Sn74      1.0  0.19192  0.23653  0.19521  1.0000
  C  Sn75      1.0  0.21105  0.23020  0.24251  1.0000
  C   C242      1.0  0.26961  0.21598  0.24701  1.0000
  C  Sn76      1.0  0.30950  0.20795  0.20525  1.0000
  O  Te73      1.0  0.32948  0.20647  0.11568  1.0000
  O  Te74      1.0  0.13354  0.25073  0.18977  1.0000
  O  Te75      1.0  0.17188  0.23802  0.28479  1.0000
  O  Te76      1.0  0.36786  0.19376  0.21068  1.0000
  Mg  Mg37      1.0  0.09692  0.25699  0.25839  1.0000
  Mg  Mg38      1.0  0.40458  0.18750  0.14209  1.0000
  C  Sn77      1.0  0.23888  0.07040  0.47226  1.0000
  C   C243      1.0  0.25788  0.07986  0.51334  1.0000
  C  Sn78      1.0  0.34036  0.07545  0.55157  1.0000
  C  Sn79      1.0  0.40526  0.06129  0.54867  1.0000
  C   C244      1.0  0.38626  0.05183  0.50760  1.0000
  C  Sn80      1.0  0.30378  0.05623  0.46935  1.0000
  O  Te77      1.0  0.15599  0.07504  0.43447  1.0000
  O  Te78      1.0  0.35778  0.08510  0.59228  1.0000
  O  Te79      1.0  0.48819  0.05665  0.58651  1.0000
  O  Te80      1.0  0.28636  0.04659  0.42866  1.0000
  Mg  Mg39      1.0  0.48052  0.07375  0.63435  1.0000
  Mg  Mg40      1.0  0.16371  0.05794  0.38656  1.0000
  C  Sn81      1.0  0.70522  0.26331  0.78479  1.0000
  C   C245      1.0  0.75885  0.26517  0.83187  1.0000
  C  Sn82      1.0  0.80729  0.27931  0.84725  1.0000
  C  Sn83      1.0  0.80195  0.29186  0.81491  1.0000
  C   C246      1.0  0.74833  0.29000  0.76787  1.0000
  C  Sn84      1.0  0.69989  0.27586  0.75245  1.0000
  O  Te81      1.0  0.65737  0.24907  0.77019  1.0000
  O  Te82      1.0  0.86049  0.28089  0.89449  1.0000
  O  Te83      1.0  0.84987  0.30611  0.82956  1.0000
  O  Te84      1.0  0.64670  0.27428  0.70525  1.0000
  Mg  Mg41      1.0  0.91301  0.30257  0.89744  1.0000
  Mg  Mg42      1.0  0.59409  0.25261  0.70227  1.0000
  C  Sn85      1.0  0.25399  0.92932  0.53175  1.0000
  C   C247      1.0  0.25010  0.92067  0.48834  1.0000
  C  Sn86      1.0  0.30904  0.92601  0.44581  1.0000
  C  Sn87      1.0  0.37331  0.94030  0.44671  1.0000
  C   C248      1.0  0.37720  0.94894  0.49010  1.0000
  C  Sn88      1.0  0.31826  0.94361  0.53264  1.0000
  O  Te85      1.0  0.19441  0.92376  0.57383  1.0000
  O  Te86      1.0  0.30383  0.91716  0.40284  1.0000
  O  Te87      1.0  0.43291  0.94586  0.40458  1.0000
  O  Te88      1.0  0.32347  0.95245  0.57559  1.0000
  Mg  Mg43      1.0  0.39958  0.92963  0.35500  1.0000
  Mg  Mg44      1.0  0.22781  0.93999  0.62346  1.0000
  C  Sn89      1.0  0.34619  0.69614  0.41451  1.0000
  C   C249      1.0  0.27161  0.69481  0.37152  1.0000
  C  Sn90      1.0  0.15629  0.68649  0.37129  1.0000
  C  Sn91      1.0  0.11458  0.67935  0.41496  1.0000
  C   C250      1.0  0.18912  0.68068  0.45792  1.0000
  C  Sn92      1.0  0.30448  0.68900  0.45818  1.0000
  O  Te89      1.0  0.46115  0.70451  0.41388  1.0000
  O  Te90      1.0  0.08340  0.68531  0.32786  1.0000
  O  Te91      1.0  0.99952  0.67097  0.41555  1.0000
  O  Te92      1.0  0.37734  0.69018  0.50158  1.0000
  Mg  Mg45      1.0  0.93380  0.67267  0.34720  1.0000
  Mg  Mg46      1.0  0.52690  0.70282  0.48229  1.0000
  C  Sn93      1.0  0.28755  0.14402  0.54124  1.0000
  C   C251      1.0  0.31468  0.15404  0.50306  1.0000
  C  Sn94      1.0  0.30850  0.14904  0.45413  1.0000
  C  Sn95      1.0  0.27442  0.13373  0.44313  1.0000
  C   C252      1.0  0.24729  0.12373  0.48130  1.0000
  C  Sn96      1.0  0.25347  0.12871  0.53024  1.0000
  O  Te93      1.0  0.29431  0.14926  0.58988  1.0000
  O  Te94      1.0  0.33609  0.15926  0.41659  1.0000
  O  Te95      1.0  0.26768  0.12850  0.39444  1.0000
  O  Te96      1.0  0.22588  0.11850  0.56777  1.0000
  Mg  Mg47      1.0  0.31374  0.14673  0.35614  1.0000
  Mg  Mg48      1.0  0.24813  0.13102  0.62823  1.0000
