data_image0
_chemical_formula_structural       H96C160S16N16SnCSn2CSnTe4Mg2SnCSn2CSnTe4Mg2SnCSn2CSnTe4Mg2SnCSn2CSnTe4Mg2SnCSn2CSnTe4Mg2SnCSn2CSnTe4Mg2SnCSn2CSnTe4Mg2SnCSn2CSnTe4Mg2SnCSn2CSnTe4Mg2SnCSn2CSnTe4Mg2SnCSn2CSnTe4Mg2SnCSn2CSnTe4Mg2SnCSn2CSnTe4Mg2SnCSn2CSnTe4Mg2SnCSn2CSnTe4Mg2SnCSn2CSnTe4Mg2SnCSn2CSnTe4Mg2SnCSn2CSnTe4Mg2SnCSn2CSnTe4Mg2SnCSn2CSnTe4Mg2
_chemical_formula_sum              "H96 C200 S16 N16 Sn80 Te80 Mg40"
_cell_length_a       48.5194
_cell_length_b       43.9206
_cell_length_c       8.62471
_cell_angle_alpha    116.479
_cell_angle_beta     93.705
_cell_angle_gamma    89.877

_symmetry_space_group_name_H-M    'P1'
_space_group_IT_number       1

loop_
  _space_group_symop_operation_xyz
  'x, y, z'

loop_
  _atom_site_type_symbol
  _atom_site_label
  _atom_site_symmetry_multiplicity
  _atom_site_fract_x
  _atom_site_fract_y
  _atom_site_fract_z
  _atom_site_occupancy
  H   H1        1.0  0.92691  0.41882  0.04888  1.0000
  H   H2        1.0  0.93944  0.58146  0.31876  1.0000
  H   H3        1.0  0.57106  0.08095  0.40403  1.0000
  H   H4        1.0  0.56403  0.91750  0.17645  1.0000
  H   H5        1.0  0.89016  0.37983  0.05601  1.0000
  H   H6        1.0  0.90123  0.61915  0.32779  1.0000
  H   H7        1.0  0.60691  0.12100  0.39781  1.0000
  H   H8        1.0  0.60151  0.87926  0.17013  1.0000
  H   H9        1.0  0.85661  0.46387  0.48367  1.0000
  H   H10       1.0  0.84265  0.53784  0.21904  1.0000
  H   H11       1.0  0.65220  0.03596  0.05712  1.0000
  H   H12       1.0  0.66085  0.96165  0.32116  1.0000
  H   H13       1.0  0.86055  0.30926  0.25221  1.0000
  H   H14       1.0  0.85472  0.67322  0.13784  1.0000
  H   H15       1.0  0.35859  0.18197  0.19240  1.0000
  H   H16       1.0  0.64391  0.82326  0.36834  1.0000
  H   H17       1.0  0.82515  0.26977  0.26117  1.0000
  H   H18       1.0  0.81857  0.71098  0.11156  1.0000
  H   H19       1.0  0.32289  0.22040  0.16791  1.0000
  H   H20       1.0  0.67834  0.78316  0.38799  1.0000
  H   H21       1.0  0.76125  0.33379  0.21260  1.0000
  H   H22       1.0  0.76387  0.67536  0.37435  1.0000
  H   H23       1.0  0.26500  0.17803  0.38277  1.0000
  H   H24       1.0  0.73458  0.81632  0.12351  1.0000
  H   H25       1.0  0.79670  0.37275  0.20143  1.0000
  H   H26       1.0  0.79900  0.63612  0.38728  1.0000
  H   H27       1.0  0.30011  0.13878  0.39844  1.0000
  H   H28       1.0  0.70090  0.85716  0.11202  1.0000
  H   H29       1.0  0.73179  0.69138  0.22946  1.0000
  H   H30       1.0  0.26318  0.30355  0.27340  1.0000
  H   H31       1.0  0.23504  0.19035  0.21266  1.0000
  H   H32       1.0  0.76561  0.80154  0.27374  1.0000
  H   H33       1.0  0.79879  0.75848  0.26231  1.0000
  H   H34       1.0  0.19993  0.22776  0.18236  1.0000
  H   H35       1.0  0.29831  0.26600  0.30196  1.0000
  H   H36       1.0  0.69858  0.73450  0.24101  1.0000
  H   H37       1.0  0.16845  0.59484  0.15505  1.0000
  H   H38       1.0  0.83414  0.40995  0.37612  1.0000
  H   H39       1.0  0.82568  0.59279  0.26807  1.0000
  H   H40       1.0  0.17236  0.40067  0.26786  1.0000
  H   H41       1.0  0.67045  0.09254  0.14457  1.0000
  H   H42       1.0  0.32872  0.90715  0.28940  1.0000
  H   H43       1.0  0.32640  0.09412  0.24429  1.0000
  H   H44       1.0  0.67706  0.90397  0.25452  1.0000
  H   H45       1.0  0.89367  0.50229  0.48180  1.0000
  H   H46       1.0  0.88029  0.49929  0.19764  1.0000
  H   H47       1.0  0.61593  0.99605  0.05392  1.0000
  H   H48       1.0  0.62351  0.00084  0.34096  1.0000
  H   H49       1.0  0.94154  0.41789  0.66886  1.0000
  H   H50       1.0  0.06122  0.41937  0.60845  1.0000
  H   H51       1.0  0.43598  0.94134  0.88074  1.0000
  H   H52       1.0  0.43300  0.06162  0.59852  1.0000
  H   H53       1.0  0.90723  0.37394  0.64131  1.0000
  H   H54       1.0  0.09742  0.37780  0.58362  1.0000
  H   H55       1.0  0.39918  0.90212  0.87754  1.0000
  H   H56       1.0  0.39814  0.10466  0.63259  1.0000
  H   H57       1.0  0.84485  0.44919  0.79948  1.0000
  H   H58       1.0  0.15876  0.45894  0.78865  1.0000
  H   H59       1.0  0.34154  0.94542  0.63806  1.0000
  H   H60       1.0  0.35211  0.07014  0.93552  1.0000
  H   H61       1.0  0.13565  0.68969  0.69111  1.0000
  H   H62       1.0  0.86293  0.69080  0.73051  1.0000
  H   H63       1.0  0.63980  0.18055  0.64262  1.0000
  H   H64       1.0  0.35759  0.81917  0.82701  1.0000
  H   H65       1.0  0.63736  0.80389  0.76310  1.0000
  H   H66       1.0  0.17120  0.72735  0.66676  1.0000
  H   H67       1.0  0.82743  0.73357  0.76190  1.0000
  H   H68       1.0  0.67643  0.21812  0.62802  1.0000
  H   H69       1.0  0.32306  0.77505  0.79747  1.0000
  H   H70       1.0  0.67287  0.76138  0.73520  1.0000
  H   H71       1.0  0.23421  0.67860  0.84349  1.0000
  H   H72       1.0  0.76433  0.66264  0.73868  1.0000
  H   H73       1.0  0.73422  0.18089  0.89934  1.0000
  H   H74       1.0  0.25921  0.83108  0.67753  1.0000
  H   H75       1.0  0.73609  0.83256  0.76368  1.0000
  H   H76       1.0  0.19882  0.63920  0.85313  1.0000
  H   H77       1.0  0.79980  0.62105  0.71671  1.0000
  H   H78       1.0  0.69801  0.14302  0.90898  1.0000
  H   H79       1.0  0.29320  0.87530  0.71537  1.0000
  H   H80       1.0  0.70063  0.87402  0.78312  1.0000
  H   H81       1.0  0.73909  0.30247  0.76044  1.0000
  H   H82       1.0  0.76413  0.19308  0.75811  1.0000
  H   H83       1.0  0.80057  0.23177  0.76164  1.0000
  H   H84       1.0  0.70273  0.26372  0.75707  1.0000
  H   H85       1.0  0.16369  0.59609  0.64665  1.0000
  H   H86       1.0  0.83251  0.39532  0.75939  1.0000
  H   H87       1.0  0.83512  0.61130  0.85627  1.0000
  H   H88       1.0  0.17243  0.40447  0.74788  1.0000
  H   H89       1.0  0.67117  0.09846  0.75486  1.0000
  H   H90       1.0  0.32715  0.89682  0.66175  1.0000
  H   H91       1.0  0.33530  0.11676  0.89402  1.0000
  H   H92       1.0  0.66481  0.88386  0.64163  1.0000
  H   H93       1.0  0.87841  0.49262  0.82711  1.0000
  H   H94       1.0  0.12309  0.50041  0.81520  1.0000
  H   H95       1.0  0.37767  0.98495  0.64415  1.0000
  H   H96       1.0  0.38747  0.02868  0.91180  1.0000
  C   C1        1.0  0.48769  0.99640  0.19950  1.0000
  C   C2        1.0  0.51567  0.99607  0.19332  1.0000
  C   C3        1.0  0.98867  0.50302  0.31009  1.0000
  C   C4        1.0  0.01671  0.50285  0.30594  1.0000
  C   C5        1.0  0.91173  0.42839  0.14585  1.0000
  C   C6        1.0  0.91825  0.57168  0.29975  1.0000
  C   C7        1.0  0.58874  0.07121  0.32659  1.0000
  C   C8        1.0  0.58521  0.92759  0.20764  1.0000
  C   C9        1.0  0.89127  0.40659  0.14931  1.0000
  C   C10       1.0  0.89697  0.59317  0.30561  1.0000
  C   C11       1.0  0.60865  0.09362  0.32446  1.0000
  C   C12       1.0  0.60609  0.90573  0.20239  1.0000
  C   C13       1.0  0.87140  0.41907  0.27324  1.0000
  C   C14       1.0  0.86925  0.58174  0.28168  1.0000
  C   C15       1.0  0.63171  0.08122  0.22590  1.0000
  C   C16       1.0  0.63387  0.91717  0.23760  1.0000
  C   C17       1.0  0.87206  0.45400  0.38866  1.0000
  C   C18       1.0  0.86395  0.54760  0.24497  1.0000
  C   C19       1.0  0.63445  0.04578  0.13395  1.0000
  C   C20       1.0  0.63959  0.95180  0.28564  1.0000
  C   C21       1.0  0.89282  0.47562  0.38795  1.0000
  C   C22       1.0  0.88531  0.52574  0.23417  1.0000
  C   C23       1.0  0.61422  0.02328  0.13268  1.0000
  C   C24       1.0  0.61849  0.97404  0.29543  1.0000
  C   C25       1.0  0.91301  0.46313  0.26629  1.0000
  C   C26       1.0  0.91319  0.53757  0.26900  1.0000
  C   C27       1.0  0.59101  0.03565  0.23003  1.0000
  C   C28       1.0  0.59071  0.96216  0.24837  1.0000
  C   C29       1.0  0.15006  0.60704  0.22285  1.0000
  C   C30       1.0  0.85067  0.39700  0.29060  1.0000
  C   C31       1.0  0.84668  0.60314  0.27663  1.0000
  C   C32       1.0  0.15176  0.38917  0.21105  1.0000
  C   C33       1.0  0.65194  0.10426  0.21250  1.0000
  C   C34       1.0  0.34935  0.89619  0.26514  1.0000
  C   C35       1.0  0.34762  0.10492  0.27070  1.0000
  C   C36       1.0  0.65560  0.89452  0.24116  1.0000
  C   C37       1.0  0.83872  0.31448  0.24510  1.0000
  C   C38       1.0  0.83456  0.67369  0.18699  1.0000
  C   C39       1.0  0.33789  0.18121  0.23236  1.0000
  C   C40       1.0  0.66402  0.82178  0.31710  1.0000
  C   C41       1.0  0.81868  0.29252  0.25064  1.0000
  C   C42       1.0  0.81432  0.69510  0.17493  1.0000
  C   C43       1.0  0.31784  0.20291  0.22065  1.0000
  C   C44       1.0  0.68332  0.79910  0.32616  1.0000
  C   C45       1.0  0.79026  0.29869  0.23909  1.0000
  C   C46       1.0  0.78836  0.69626  0.24173  1.0000
  C   C47       1.0  0.29091  0.20188  0.27106  1.0000
  C   C48       1.0  0.70936  0.79688  0.25896  1.0000
  C   C49       1.0  0.78296  0.32821  0.22254  1.0000
  C   C50       1.0  0.78323  0.67399  0.31485  1.0000
  C   C51       1.0  0.28509  0.17808  0.33370  1.0000
  C   C52       1.0  0.71528  0.81876  0.18487  1.0000
  C   C53       1.0  0.80290  0.35066  0.21947  1.0000
  C   C54       1.0  0.80315  0.65184  0.32297  1.0000
  C   C55       1.0  0.30485  0.15579  0.34225  1.0000
  C   C56       1.0  0.69628  0.84194  0.17828  1.0000
  C   C57       1.0  0.83121  0.34417  0.23116  1.0000
  C   C58       1.0  0.82936  0.65158  0.26073  1.0000
  C   C59       1.0  0.33163  0.15672  0.28948  1.0000
  C   C60       1.0  0.67023  0.84393  0.24500  1.0000
  C   C61       1.0  0.73941  0.71560  0.24060  1.0000
  C   C62       1.0  0.25680  0.27854  0.25727  1.0000
  C   C63       1.0  0.24139  0.21530  0.22754  1.0000
  C   C64       1.0  0.75798  0.77732  0.26245  1.0000
  C   C65       1.0  0.77679  0.75287  0.25516  1.0000
  C   C66       1.0  0.22143  0.23662  0.21058  1.0000
  C   C67       1.0  0.27680  0.25719  0.27331  1.0000
  C   C68       1.0  0.72058  0.74010  0.24793  1.0000
  C   C69       1.0  0.76802  0.72133  0.24365  1.0000
  C   C70       1.0  0.22854  0.26883  0.22398  1.0000
  C   C71       1.0  0.26967  0.22487  0.25821  1.0000
  C   C72       1.0  0.72936  0.77156  0.25854  1.0000
  C   C73       1.0  0.43546  0.01285  0.22611  1.0000
  C   C74       1.0  0.56786  0.98254  0.23153  1.0000
  C   C75       1.0  0.56800  0.01304  0.22230  1.0000
  C   C76       1.0  0.43656  0.98301  0.24319  1.0000
  C   C77       1.0  0.93641  0.51725  0.28129  1.0000
  C   C78       1.0  0.06818  0.48471  0.24735  1.0000
  C   C79       1.0  0.06763  0.51791  0.27127  1.0000
  C   C80       1.0  0.93639  0.48542  0.27501  1.0000
  C   C81       1.0  0.48485  0.99393  0.69071  1.0000
  C   C82       1.0  0.51270  0.99207  0.67818  1.0000
  C   C83       1.0  0.98762  0.50624  0.85267  1.0000
  C   C84       1.0  0.01547  0.50607  0.84075  1.0000
  C   C85       1.0  0.92047  0.42515  0.70213  1.0000
  C   C86       1.0  0.08259  0.42819  0.65047  1.0000
  C   C87       1.0  0.41526  0.94237  0.82722  1.0000
  C   C88       1.0  0.41538  0.06341  0.67370  1.0000
  C   C89       1.0  0.90126  0.40021  0.68456  1.0000
  C   C90       1.0  0.10274  0.40474  0.63463  1.0000
  C   C91       1.0  0.39470  0.92032  0.82644  1.0000
  C   C92       1.0  0.39576  0.08754  0.69094  1.0000
  C   C93       1.0  0.87377  0.40853  0.72581  1.0000
  C   C94       1.0  0.13047  0.41556  0.68990  1.0000
  C   C95       1.0  0.36780  0.92057  0.75531  1.0000
  C   C96       1.0  0.37237  0.09026  0.78427  1.0000
  C   C97       1.0  0.86620  0.44226  0.77211  1.0000
  C   C98       1.0  0.13729  0.45029  0.74877  1.0000
  C   C99       1.0  0.36221  0.94489  0.69388  1.0000
  C   C100      1.0  0.36975  0.06809  0.86028  1.0000
  C   C101      1.0  0.88540  0.46714  0.78978  1.0000
  C   C102      1.0  0.11714  0.47375  0.76415  1.0000
  C   C103      1.0  0.38265  0.96721  0.69662  1.0000
  C   C104      1.0  0.38964  0.04439  0.84583  1.0000
  C   C105      1.0  0.91351  0.45988  0.76207  1.0000
  C   C106      1.0  0.08896  0.46357  0.72225  1.0000
  C   C107      1.0  0.40996  0.96603  0.75938  1.0000
  C   C108      1.0  0.41278  0.04092  0.74961  1.0000
  C   C109      1.0  0.14640  0.60903  0.72496  1.0000
  C   C110      1.0  0.85332  0.38508  0.73232  1.0000
  C   C111      1.0  0.85302  0.61052  0.78262  1.0000
  C   C112      1.0  0.15164  0.39281  0.69881  1.0000
  C   C113      1.0  0.64997  0.10775  0.76334  1.0000
  C   C114      1.0  0.34622  0.89586  0.73552  1.0000
  C   C115      1.0  0.35163  0.11574  0.80916  1.0000
  C   C116      1.0  0.64724  0.88486  0.71822  1.0000
  C   C117      1.0  0.15733  0.68734  0.72306  1.0000
  C   C118      1.0  0.84126  0.68522  0.73532  1.0000
  C   C119      1.0  0.66060  0.18088  0.69852  1.0000
  C   C120      1.0  0.33596  0.82108  0.79168  1.0000
  C   C121      1.0  0.65905  0.80967  0.76075  1.0000
  C   C122      1.0  0.17737  0.70870  0.71208  1.0000
  C   C123      1.0  0.82120  0.70892  0.75164  1.0000
  C   C124      1.0  0.68125  0.20211  0.69208  1.0000
  C   C125      1.0  0.31647  0.79627  0.77281  1.0000
  C   C126      1.0  0.67912  0.78605  0.74606  1.0000
  C   C127      1.0  0.20556  0.70600  0.75379  1.0000
  C   C128      1.0  0.79299  0.70156  0.75366  1.0000
  C   C129      1.0  0.70846  0.20210  0.75994  1.0000
  C   C130      1.0  0.28826  0.79933  0.73371  1.0000
  C   C131      1.0  0.70737  0.79354  0.74683  1.0000
  C   C132      1.0  0.21282  0.68027  0.80249  1.0000
  C   C133      1.0  0.78598  0.66948  0.74241  1.0000
  C   C134      1.0  0.71390  0.17999  0.83609  1.0000
  C   C135      1.0  0.28071  0.82829  0.71184  1.0000
  C   C136      1.0  0.71443  0.82563  0.75840  1.0000
  C   C137      1.0  0.19296  0.65799  0.80807  1.0000
  C   C138      1.0  0.80600  0.64588  0.72925  1.0000
  C   C139      1.0  0.69343  0.15844  0.84132  1.0000
  C   C140      1.0  0.30008  0.85321  0.73121  1.0000
  C   C141      1.0  0.69442  0.84918  0.77015  1.0000
  C   C142      1.0  0.16480  0.66139  0.76955  1.0000
  C   C143      1.0  0.83415  0.65342  0.72659  1.0000
  C   C144      1.0  0.66638  0.15810  0.76976  1.0000
  C   C145      1.0  0.32830  0.85006  0.77099  1.0000
  C   C146      1.0  0.66623  0.84161  0.77140  1.0000
  C   C147      1.0  0.74488  0.27845  0.75931  1.0000
  C   C148      1.0  0.75845  0.21723  0.76051  1.0000
  C   C149      1.0  0.77920  0.23938  0.76370  1.0000
  C   C150      1.0  0.72414  0.25629  0.75596  1.0000
  C   C151      1.0  0.77303  0.27067  0.76292  1.0000
  C   C152      1.0  0.73032  0.22504  0.75706  1.0000
  C   C153      1.0  0.43417  0.01603  0.73088  1.0000
  C   C154      1.0  0.56481  0.97884  0.70840  1.0000
  C   C155      1.0  0.56524  0.01042  0.70903  1.0000
  C   C156      1.0  0.43307  0.98550  0.74029  1.0000
  C   C157      1.0  0.93547  0.51859  0.81800  1.0000
  C   C158      1.0  0.06629  0.48754  0.76556  1.0000
  C   C159      1.0  0.06545  0.52096  0.79405  1.0000
  C   C160      1.0  0.93544  0.48592  0.80295  1.0000
  S   S1        1.0  0.46659  0.02676  0.17791  1.0000
  S   S2        1.0  0.53472  0.96229  0.19451  1.0000
  S   S3        1.0  0.53590  0.02692  0.17376  1.0000
  S   S4        1.0  0.46926  0.96376  0.21489  1.0000
  S   S5        1.0  0.96945  0.53831  0.33001  1.0000
  S   S6        1.0  0.03733  0.46894  0.29014  1.0000
  S   S7        1.0  0.03589  0.53847  0.32855  1.0000
  S   S8        1.0  0.96851  0.46993  0.30935  1.0000
  S   S9        1.0  0.46643  0.02775  0.68560  1.0000
  S   S10       1.0  0.53217  0.95773  0.66532  1.0000
  S   S11       1.0  0.53231  0.02327  0.65795  1.0000
  S   S12       1.0  0.46391  0.96223  0.69718  1.0000
  S   S13       1.0  0.96757  0.54123  0.88155  1.0000
  S   S14       1.0  0.03600  0.47143  0.81304  1.0000
  S   S15       1.0  0.03426  0.54185  0.86284  1.0000
  S   S16       1.0  0.96834  0.47271  0.85254  1.0000
  N   N1        1.0  0.14624  0.63919  0.27619  1.0000
  N   N2        1.0  0.85223  0.36429  0.21717  1.0000
  N   N3        1.0  0.85123  0.63162  0.27074  1.0000
  N   N4        1.0  0.14617  0.35742  0.16595  1.0000
  N   N5        1.0  0.64791  0.13651  0.27215  1.0000
  N   N6        1.0  0.35403  0.86601  0.24970  1.0000
  N   N7        1.0  0.35297  0.13547  0.29263  1.0000
  N   N8        1.0  0.64956  0.86568  0.23970  1.0000
  N   N9        1.0  0.14382  0.64152  0.78670  1.0000
  N   N10       1.0  0.85881  0.35519  0.71918  1.0000
  N   N11       1.0  0.85559  0.63108  0.71361  1.0000
  N   N12       1.0  0.14615  0.36146  0.66286  1.0000
  N   N13       1.0  0.64460  0.13702  0.76781  1.0000
  N   N14       1.0  0.34958  0.87357  0.79456  1.0000
  N   N15       1.0  0.35283  0.13649  0.74009  1.0000
  N   N16       1.0  0.64490  0.86414  0.78654  1.0000
  C  Sn1       1.0  0.26399  0.72752  0.28546  1.0000
  C   C161      1.0  0.23554  0.73179  0.29873  1.0000
  C  Sn2       1.0  0.22276  0.75790  0.27339  1.0000
  C  Sn3       1.0  0.23873  0.78021  0.23385  1.0000
  C   C162      1.0  0.26715  0.77593  0.22058  1.0000
  C  Sn4       1.0  0.27996  0.74982  0.24593  1.0000
  O  Te1       1.0  0.27633  0.70123  0.31130  1.0000
  O  Te2       1.0  0.19429  0.76167  0.28739  1.0000
  O  Te3       1.0  0.22635  0.80650  0.20802  1.0000
  O  Te4       1.0  0.30840  0.74604  0.23192  1.0000
  Mg  Mg1       1.0  0.18695  0.80130  0.24083  1.0000
  Mg  Mg2       1.0  0.31577  0.70641  0.27835  1.0000
  C  Sn5       1.0  0.71358  0.16609  0.24162  1.0000
  C   C163      1.0  0.70876  0.19631  0.22898  1.0000
  C  Sn6       1.0  0.68263  0.21043  0.25429  1.0000
  C  Sn7       1.0  0.66087  0.19402  0.29317  1.0000
  C   C164      1.0  0.66570  0.16382  0.30583  1.0000
  C  Sn8       1.0  0.69182  0.14967  0.28050  1.0000
  O  Te5       1.0  0.73987  0.15243  0.21583  1.0000
  O  Te6       1.0  0.67831  0.24066  0.24092  1.0000
  O  Te7       1.0  0.63457  0.20771  0.31896  1.0000
  O  Te8       1.0  0.69615  0.11947  0.29388  1.0000
  Mg  Mg3       1.0  0.63890  0.24933  0.28715  1.0000
  Mg  Mg4       1.0  0.73555  0.11079  0.24777  1.0000
  C  Sn9       1.0  0.19893  0.33008  0.09946  1.0000
  C   C165      1.0  0.17093  0.33128  0.13025  1.0000
  C  Sn10      1.0  0.16067  0.31415  0.21833  1.0000
  C  Sn11      1.0  0.17877  0.29545  0.27697  1.0000
  C   C166      1.0  0.20675  0.29426  0.24620  1.0000
  C  Sn12      1.0  0.21704  0.31138  0.15810  1.0000
  O  Te9       1.0  0.20875  0.34740  0.01115  1.0000
  O  Te10      1.0  0.13259  0.31571  0.24753  1.0000
  O  Te11      1.0  0.16893  0.27813  0.36534  1.0000
  O  Te12      1.0  0.24509  0.30983  0.12892  1.0000
  Mg  Mg5       1.0  0.12906  0.28790  0.37384  1.0000
  Mg  Mg6       1.0  0.24864  0.33765  0.00272  1.0000
  C  Sn13      1.0  0.73703  0.72184  0.78095  1.0000
  C   C167      1.0  0.76354  0.71877  0.72197  1.0000
  C  Sn14      1.0  0.77461  0.74378  0.68385  1.0000
  C  Sn15      1.0  0.75888  0.77247  0.70522  1.0000
  C   C168      1.0  0.73239  0.77553  0.76419  1.0000
  C  Sn16      1.0  0.72130  0.75053  0.80232  1.0000
  O  Te13      1.0  0.72638  0.69652  0.81829  1.0000
  O  Te14      1.0  0.80115  0.74015  0.62501  1.0000
  O  Te15      1.0  0.76956  0.79779  0.66782  1.0000
  O  Te16      1.0  0.69478  0.75415  0.86115  1.0000
  Mg  Mg7       1.0  0.80666  0.78141  0.59140  1.0000
  Mg  Mg8       1.0  0.68926  0.71292  0.89489  1.0000
  C  Sn17      1.0  0.59270  0.91075  0.77822  1.0000
  C   C169      1.0  0.61756  0.90288  0.69729  1.0000
  C  Sn18      1.0  0.62898  0.92438  0.63674  1.0000
  C  Sn19      1.0  0.61528  0.95439  0.65761  1.0000
  C   C170      1.0  0.59044  0.96226  0.73853  1.0000
  C  Sn20      1.0  0.57900  0.94076  0.79910  1.0000
  O  Te17      1.0  0.58166  0.88888  0.83776  1.0000
  O  Te18      1.0  0.65384  0.91597  0.55619  1.0000
  O  Te19      1.0  0.62634  0.97626  0.59798  1.0000
  O  Te20      1.0  0.55415  0.94916  0.87963  1.0000
  Mg  Mg9       1.0  0.66066  0.95384  0.49692  1.0000
  Mg  Mg10      1.0  0.54732  0.91132  0.93903  1.0000
  C  Sn21      1.0  0.16448  0.31627  0.77894  1.0000
  C   C171      1.0  0.16782  0.34124  0.72244  1.0000
  C  Sn22      1.0  0.19140  0.34232  0.64007  1.0000
  C  Sn23      1.0  0.21207  0.31793  0.61351  1.0000
  C   C172      1.0  0.20872  0.29298  0.66995  1.0000
  C  Sn24      1.0  0.18515  0.29188  0.75237  1.0000
  O  Te21      1.0  0.14074  0.31567  0.86098  1.0000
  O  Te22      1.0  0.19428  0.36752  0.58479  1.0000
  O  Te23      1.0  0.23582  0.31855  0.53139  1.0000
  O  Te24      1.0  0.18226  0.26670  0.80760  1.0000
  Mg  Mg11      1.0  0.23030  0.35780  0.47935  1.0000
  Mg  Mg12      1.0  0.14624  0.27638  0.91297  1.0000
  C  Sn25      1.0  0.29676  0.15362  0.73915  1.0000
  C   C173      1.0  0.32491  0.15445  0.71518  1.0000
  C  Sn26      1.0  0.33807  0.18474  0.74060  1.0000
  C  Sn27      1.0  0.32278  0.21484  0.79115  1.0000
  C   C174      1.0  0.29465  0.21400  0.81513  1.0000
  C  Sn28      1.0  0.28147  0.18372  0.78970  1.0000
  O  Te25      1.0  0.28404  0.12305  0.71302  1.0000
  O  Te26      1.0  0.36623  0.18494  0.71578  1.0000
  O  Te27      1.0  0.33553  0.24542  0.81727  1.0000
  O  Te28      1.0  0.25333  0.18351  0.81452  1.0000
  Mg  Mg13      1.0  0.37430  0.23282  0.76737  1.0000
  Mg  Mg14      1.0  0.24524  0.13565  0.76306  1.0000
  C  Sn29      1.0  0.17325  0.71076  0.25964  1.0000
  C   C175      1.0  0.20184  0.71093  0.29293  1.0000
  C  Sn30      1.0  0.21429  0.68309  0.30292  1.0000
  C  Sn31      1.0  0.19783  0.65448  0.27904  1.0000
  C   C176      1.0  0.16926  0.65432  0.24574  1.0000
  C  Sn32      1.0  0.15679  0.68214  0.23575  1.0000
  O  Te29      1.0  0.16124  0.73886  0.25020  1.0000
  O  Te30      1.0  0.24291  0.68385  0.33641  1.0000
  O  Te31      1.0  0.20987  0.62636  0.28851  1.0000
  O  Te32      1.0  0.12819  0.68139  0.20227  1.0000
  Mg  Mg15      1.0  0.24966  0.63943  0.33696  1.0000
  Mg  Mg16      1.0  0.12142  0.72579  0.20159  1.0000
  C  Sn33      1.0  0.62034  0.03670  0.79813  1.0000
  C   C177      1.0  0.59164  0.03957  0.79486  1.0000
  C  Sn34      1.0  0.57918  0.06459  0.75849  1.0000
  C  Sn35      1.0  0.59770  0.08720  0.72458  1.0000
  C   C178      1.0  0.62638  0.08433  0.72783  1.0000
  C  Sn36      1.0  0.63691  0.05932  0.76422  1.0000
  O  Te33      1.0  0.63235  0.01149  0.83478  1.0000
  O  Te34      1.0  0.55240  0.06696  0.75600  1.0000
  O  Te35      1.0  0.58566  0.11242  0.68792  1.0000
  O  Te36      1.0  0.66563  0.05693  0.76669  1.0000
  Mg  Mg17      1.0  0.54570  0.10549  0.69946  1.0000
  Mg  Mg18      1.0  0.67235  0.01840  0.82313  1.0000
  C  Sn37      1.0  0.41344  0.91890  0.16630  1.0000
  C   C179      1.0  0.41282  0.95373  0.21343  1.0000
  C  Sn38      1.0  0.39148  0.97324  0.30772  1.0000
  C  Sn39      1.0  0.37032  0.95761  0.35601  1.0000
  C   C180      1.0  0.37095  0.92280  0.30891  1.0000
  C  Sn40      1.0  0.39228  0.90328  0.21459  1.0000
  O  Te37      1.0  0.43498  0.89990  0.07205  1.0000
  O  Te38      1.0  0.39130  0.00801  0.35330  1.0000
  O  Te39      1.0  0.34877  0.97665  0.45033  1.0000
  O  Te40      1.0  0.39247  0.86852  0.16905  1.0000
  Mg  Mg19      1.0  0.35760  0.02313  0.48200  1.0000
  Mg  Mg20      1.0  0.42617  0.85338  0.04043  1.0000
  C  Sn41      1.0  0.84165  0.29919  0.75637  1.0000
  C   C181      1.0  0.83907  0.32340  0.69304  1.0000
  C  Sn42      1.0  0.81313  0.33541  0.67149  1.0000
  C  Sn43      1.0  0.78927  0.32298  0.71424  1.0000
  C   C182      1.0  0.79185  0.29879  0.77755  1.0000
  C  Sn44      1.0  0.81778  0.28676  0.79911  1.0000
  O  Te41      1.0  0.86779  0.28754  0.77687  1.0000
  O  Te42      1.0  0.81107  0.35961  0.60791  1.0000
  O  Te43      1.0  0.76312  0.33465  0.69367  1.0000
  O  Te44      1.0  0.81985  0.26259  0.86268  1.0000
  Mg  Mg21      1.0  0.77093  0.36767  0.60271  1.0000
  Mg  Mg22      1.0  0.85998  0.25452  0.86802  1.0000
  C  Sn45      1.0  0.87610  0.57062  0.92408  1.0000
  C   C183      1.0  0.87599  0.58831  0.82371  1.0000
  C  Sn46      1.0  0.89467  0.58048  0.69551  1.0000
  C  Sn47      1.0  0.91385  0.55440  0.66695  1.0000
  C   C184      1.0  0.91394  0.53671  0.76726  1.0000
  C  Sn48      1.0  0.89527  0.54453  0.89552  1.0000
  O  Te45      1.0  0.84592  0.49134  0.05152  1.0000
  O  Te46      1.0  0.89418  0.59853  0.59685  1.0000
  O  Te47      1.0  0.93271  0.54615  0.53938  1.0000
  O  Te48      1.0  0.89575  0.52649  0.99412  1.0000
  Mg  Mg23      1.0  0.92397  0.57793  0.43852  1.0000
  Mg  Mg24      1.0  0.85464  0.45953  0.15240  1.0000
  C  Sn49      1.0  0.77491  0.24117  0.28924  1.0000
  C   C185      1.0  0.77191  0.26384  0.21635  1.0000
  C  Sn50      1.0  0.74565  0.27307  0.17928  1.0000
  C  Sn51      1.0  0.72188  0.25937  0.21591  1.0000
  C   C186      1.0  0.72488  0.23672  0.28877  1.0000
  C  Sn52      1.0  0.75114  0.22747  0.32587  1.0000
  O  Te49      1.0  0.80137  0.23231  0.32524  1.0000
  O  Te50      1.0  0.74317  0.29576  0.10637  1.0000
  O  Te51      1.0  0.69540  0.26825  0.17984  1.0000
  O  Te52      1.0  0.75362  0.20480  0.39875  1.0000
  Mg  Mg25      1.0  0.70271  0.30010  0.08080  1.0000
  Mg  Mg26      1.0  0.79408  0.20046  0.42446  1.0000
  C  Sn53      1.0  0.22323  0.23858  0.75824  1.0000
  C   C187      1.0  0.22635  0.27201  0.78156  1.0000
  C  Sn54      1.0  0.25261  0.28591  0.79038  1.0000
  C  Sn55      1.0  0.27624  0.26598  0.77548  1.0000
  C   C188      1.0  0.27311  0.23257  0.75214  1.0000
  C  Sn56      1.0  0.24686  0.21865  0.74334  1.0000
  O  Te53      1.0  0.19678  0.22519  0.74978  1.0000
  O  Te54      1.0  0.25521  0.31940  0.81381  1.0000
  O  Te55      1.0  0.30270  0.27940  0.78396  1.0000
  O  Te56      1.0  0.24425  0.18518  0.71989  1.0000
  Mg  Mg27      1.0  0.29561  0.32623  0.81707  1.0000
  Mg  Mg28      1.0  0.20387  0.17832  0.71652  1.0000
  C  Sn57      1.0  0.33763  0.80982  0.28493  1.0000
  C   C189      1.0  0.33525  0.83318  0.21605  1.0000
  C  Sn58      1.0  0.30924  0.84265  0.17644  1.0000
  C  Sn59      1.0  0.28510  0.82848  0.20639  1.0000
  C   C190      1.0  0.28748  0.80514  0.27525  1.0000
  C  Sn60      1.0  0.31349  0.79566  0.31488  1.0000
  O  Te57      1.0  0.36385  0.80073  0.32358  1.0000
  O  Te58      1.0  0.30739  0.86604  0.10763  1.0000
  O  Te59      1.0  0.25887  0.83760  0.16767  1.0000
  O  Te60      1.0  0.31534  0.77229  0.38367  1.0000
  Mg  Mg29      1.0  0.26704  0.87043  0.07618  1.0000
  Mg  Mg30      1.0  0.35568  0.76789  0.41525  1.0000
  C  Sn61      1.0  0.37989  0.02587  0.12784  1.0000
  C   C191      1.0  0.40817  0.03314  0.17103  1.0000
  C  Sn62      1.0  0.41772  0.06625  0.28231  1.0000
  C  Sn63      1.0  0.39861  0.09265  0.35197  1.0000
  C   C192      1.0  0.37035  0.08538  0.30881  1.0000
  C  Sn64      1.0  0.36078  0.05227  0.19750  1.0000
  O  Te61      1.0  0.36887  0.99259  0.01636  1.0000
  O  Te62      1.0  0.44609  0.07289  0.32355  1.0000
  O  Te63      1.0  0.40771  0.12595  0.46353  1.0000
  O  Te64      1.0  0.33243  0.04562  0.15629  1.0000
  Mg  Mg31      1.0  0.44835  0.12230  0.48112  1.0000
  Mg  Mg32      1.0  0.33952  0.08375  0.99881  1.0000
  C  Sn65      1.0  0.23648  0.78492  0.82222  1.0000
  C   C193      1.0  0.26395  0.77863  0.78081  1.0000
  C  Sn66      1.0  0.27310  0.74530  0.70162  1.0000
  C  Sn67      1.0  0.25440  0.71767  0.66291  1.0000
  C   C194      1.0  0.22694  0.72397  0.70429  1.0000
  C  Sn68      1.0  0.21777  0.75729  0.78351  1.0000
  O  Te65      1.0  0.22778  0.81844  0.90134  1.0000
  O  Te66      1.0  0.30067  0.73965  0.66150  1.0000
  O  Te67      1.0  0.26312  0.68413  0.58373  1.0000
  O  Te68      1.0  0.19022  0.76295  0.82359  1.0000
  Mg  Mg33      1.0  0.30266  0.68944  0.55423  1.0000
  Mg  Mg34      1.0  0.18821  0.81315  0.93078  1.0000
  C  Sn69      1.0  0.11685  0.54742  0.59941  1.0000
  C   C195      1.0  0.12167  0.58220  0.70560  1.0000
  C  Sn70      1.0  0.11018  0.59811  0.86614  1.0000
  C  Sn71      1.0  0.09354  0.57886  0.92177  1.0000
  C   C196      1.0  0.08873  0.54410  0.81562  1.0000
  C  Sn72      1.0  0.10021  0.52817  0.65503  1.0000
  O  Te69      1.0  0.12854  0.53204  0.43943  1.0000
  O  Te70      1.0  0.11529  0.63291  0.97002  1.0000
  O  Te71      1.0  0.07053  0.50674  0.08189  1.0000
  O  Te72      1.0  0.09511  0.49339  0.55121  1.0000
  Mg  Mg35      1.0  0.08348  0.55480  0.17716  1.0000
  Mg  Mg36      1.0  0.11560  0.48394  0.34409  1.0000
  C  Sn73      1.0  0.08510  0.41947  0.17582  1.0000
  C   C197      1.0  0.08854  0.45467  0.23887  1.0000
  C  Sn74      1.0  0.11499  0.46961  0.26996  1.0000
  C  Sn75      1.0  0.13848  0.44894  0.23726  1.0000
  C   C198      1.0  0.13503  0.41377  0.17422  1.0000
  C  Sn76      1.0  0.10859  0.39880  0.14312  1.0000
  O  Te73      1.0  0.05847  0.40508  0.14567  1.0000
  O  Te74      1.0  0.11791  0.50485  0.33306  1.0000
  O  Te75      1.0  0.16513  0.46337  0.26747  1.0000
  O  Te76      1.0  0.10566  0.36358  0.08003  1.0000
  Mg  Mg37      1.0  0.15846  0.51254  0.35360  1.0000
  Mg  Mg38      1.0  0.06513  0.35587  0.05936  1.0000
  C  Sn77      1.0  0.08679  0.58264  0.32675  1.0000
  C   C199      1.0  0.08580  0.54708  0.24618  1.0000
  C  Sn78      1.0  0.10887  0.52894  0.16877  1.0000
  C  Sn79      1.0  0.13344  0.54671  0.17204  1.0000
  C   C200      1.0  0.13442  0.58225  0.25261  1.0000
  C  Sn80      1.0  0.11136  0.60042  0.33003  1.0000
  O  Te77      1.0  0.06349  0.60025  0.40332  1.0000
  O  Te78      1.0  0.10738  0.49339  0.08894  1.0000
  O  Te79      1.0  0.15676  0.52907  0.09538  1.0000
  O  Te80      1.0  0.11284  0.63594  0.40984  1.0000
  Mg  Mg39      1.0  0.14458  0.48078  0.00264  1.0000
  Mg  Mg40      1.0  0.07566  0.64857  0.49626  1.0000
