data_image0
_chemical_formula_structural       H16C40S16N16SnCSn2CSnTe4Mg2SnCSn2CSnTe4Mg2SnCSn2CSnTe4Mg2SnCSn2CSnTe4Mg2SnCSn2CSnTe4Mg2SnCSn2CSnTe4Mg2SnCSn2CSnTe4Mg2SnCSn2CSnTe4Mg2SnCSn2CSnTe4Mg2SnCSn2CSnTe4Mg2SnCSn2CSnTe4Mg2SnCSn2CSnTe4Mg2SnCSn2CSnTe4Mg2SnCSn2CSnTe4Mg2SnCSn2CSnTe4Mg2SnCSn2CSnTe4Mg2SnCSn2CSnTe4Mg2SnCSn2CSnTe4Mg2SnCSn2CSnTe4Mg2SnCSn2CSnTe4Mg2SnCSn2CSnTe4Mg2SnCSn2CSnTe4Mg2SnCSn2CSnTe4Mg2SnCSn2CSnTe4Mg2SnCSn2CSnTe4Mg2SnCSn2CSnTe4Mg2SnCSn2CSnTe4Mg2SnCSn2CSnTe4Mg2SnCSn2CSnTe4Mg2SnCSn2CSnTe4Mg2SnCSn2CSnTe4Mg2SnCSn2CSnTe4Mg2SnCSn2CSnTe4Mg2SnCSn2CSnTe4Mg2SnCSn2CSnTe4Mg2SnCSn2CSnTe4Mg2SnCSn2CSnTe4Mg2SnCSn2CSnTe4Mg2SnCSn2CSnTe4Mg2SnCSn2CSnTe4Mg2
_chemical_formula_sum              "H16 C120 S16 N16 Sn160 Te160 Mg80"
_cell_length_a       48.5194
_cell_length_b       43.9206
_cell_length_c       8.62471
_cell_angle_alpha    116.479
_cell_angle_beta     93.705
_cell_angle_gamma    89.877

_symmetry_space_group_name_H-M    'P1'
_space_group_IT_number       1

loop_
  _space_group_symop_operation_xyz
  'x, y, z'

loop_
  _atom_site_type_symbol
  _atom_site_label
  _atom_site_symmetry_multiplicity
  _atom_site_fract_x
  _atom_site_fract_y
  _atom_site_fract_z
  _atom_site_occupancy
  H   H1        1.0  0.16845  0.59484  0.15505  1.0000
  H   H2        1.0  0.83414  0.40995  0.37612  1.0000
  H   H3        1.0  0.82568  0.59279  0.26807  1.0000
  H   H4        1.0  0.17236  0.40067  0.26786  1.0000
  H   H5        1.0  0.67045  0.09254  0.14457  1.0000
  H   H6        1.0  0.32872  0.90715  0.28940  1.0000
  H   H7        1.0  0.32640  0.09412  0.24429  1.0000
  H   H8        1.0  0.67706  0.90397  0.25452  1.0000
  H   H9        1.0  0.16369  0.59609  0.64665  1.0000
  H   H10       1.0  0.83251  0.39532  0.75939  1.0000
  H   H11       1.0  0.83512  0.61130  0.85627  1.0000
  H   H12       1.0  0.17243  0.40447  0.74788  1.0000
  H   H13       1.0  0.67117  0.09846  0.75486  1.0000
  H   H14       1.0  0.32715  0.89682  0.66175  1.0000
  H   H15       1.0  0.33530  0.11676  0.89402  1.0000
  H   H16       1.0  0.66481  0.88386  0.64163  1.0000
  C   C1        1.0  0.48769  0.99640  0.19950  1.0000
  C   C2        1.0  0.51567  0.99607  0.19332  1.0000
  C   C3        1.0  0.98867  0.50302  0.31009  1.0000
  C   C4        1.0  0.01671  0.50285  0.30594  1.0000
  C   C5        1.0  0.15006  0.60704  0.22285  1.0000
  C   C6        1.0  0.85067  0.39700  0.29060  1.0000
  C   C7        1.0  0.84668  0.60314  0.27663  1.0000
  C   C8        1.0  0.15176  0.38917  0.21105  1.0000
  C   C9        1.0  0.65194  0.10426  0.21250  1.0000
  C   C10       1.0  0.34935  0.89619  0.26514  1.0000
  C   C11       1.0  0.34762  0.10492  0.27070  1.0000
  C   C12       1.0  0.65560  0.89452  0.24116  1.0000
  C   C13       1.0  0.43546  0.01285  0.22611  1.0000
  C   C14       1.0  0.56786  0.98254  0.23153  1.0000
  C   C15       1.0  0.56800  0.01304  0.22230  1.0000
  C   C16       1.0  0.43656  0.98301  0.24319  1.0000
  C   C17       1.0  0.93641  0.51725  0.28129  1.0000
  C   C18       1.0  0.06818  0.48471  0.24735  1.0000
  C   C19       1.0  0.06763  0.51791  0.27127  1.0000
  C   C20       1.0  0.93639  0.48542  0.27501  1.0000
  C   C21       1.0  0.48485  0.99393  0.69071  1.0000
  C   C22       1.0  0.51270  0.99207  0.67818  1.0000
  C   C23       1.0  0.98762  0.50624  0.85267  1.0000
  C   C24       1.0  0.01547  0.50607  0.84075  1.0000
  C   C25       1.0  0.14640  0.60903  0.72496  1.0000
  C   C26       1.0  0.85332  0.38508  0.73232  1.0000
  C   C27       1.0  0.85302  0.61052  0.78262  1.0000
  C   C28       1.0  0.15164  0.39281  0.69881  1.0000
  C   C29       1.0  0.64997  0.10775  0.76334  1.0000
  C   C30       1.0  0.34622  0.89586  0.73552  1.0000
  C   C31       1.0  0.35163  0.11574  0.80916  1.0000
  C   C32       1.0  0.64724  0.88486  0.71822  1.0000
  C   C33       1.0  0.43417  0.01603  0.73088  1.0000
  C   C34       1.0  0.56481  0.97884  0.70840  1.0000
  C   C35       1.0  0.56524  0.01042  0.70903  1.0000
  C   C36       1.0  0.43307  0.98550  0.74029  1.0000
  C   C37       1.0  0.93547  0.51859  0.81800  1.0000
  C   C38       1.0  0.06629  0.48754  0.76556  1.0000
  C   C39       1.0  0.06545  0.52096  0.79405  1.0000
  C   C40       1.0  0.93544  0.48592  0.80295  1.0000
  S   S1        1.0  0.46659  0.02676  0.17791  1.0000
  S   S2        1.0  0.53472  0.96229  0.19451  1.0000
  S   S3        1.0  0.53590  0.02692  0.17376  1.0000
  S   S4        1.0  0.46926  0.96376  0.21489  1.0000
  S   S5        1.0  0.96945  0.53831  0.33001  1.0000
  S   S6        1.0  0.03733  0.46894  0.29014  1.0000
  S   S7        1.0  0.03589  0.53847  0.32855  1.0000
  S   S8        1.0  0.96851  0.46993  0.30935  1.0000
  S   S9        1.0  0.46643  0.02775  0.68560  1.0000
  S   S10       1.0  0.53217  0.95773  0.66532  1.0000
  S   S11       1.0  0.53231  0.02327  0.65795  1.0000
  S   S12       1.0  0.46391  0.96223  0.69718  1.0000
  S   S13       1.0  0.96757  0.54123  0.88155  1.0000
  S   S14       1.0  0.03600  0.47143  0.81304  1.0000
  S   S15       1.0  0.03426  0.54185  0.86284  1.0000
  S   S16       1.0  0.96834  0.47271  0.85254  1.0000
  N   N1        1.0  0.14624  0.63919  0.27619  1.0000
  N   N2        1.0  0.85223  0.36429  0.21717  1.0000
  N   N3        1.0  0.85123  0.63162  0.27074  1.0000
  N   N4        1.0  0.14617  0.35742  0.16595  1.0000
  N   N5        1.0  0.64791  0.13651  0.27215  1.0000
  N   N6        1.0  0.35403  0.86601  0.24970  1.0000
  N   N7        1.0  0.35297  0.13547  0.29263  1.0000
  N   N8        1.0  0.64956  0.86568  0.23970  1.0000
  N   N9        1.0  0.14382  0.64152  0.78670  1.0000
  N   N10       1.0  0.85881  0.35519  0.71918  1.0000
  N   N11       1.0  0.85559  0.63108  0.71361  1.0000
  N   N12       1.0  0.14615  0.36146  0.66286  1.0000
  N   N13       1.0  0.64460  0.13702  0.76781  1.0000
  N   N14       1.0  0.34958  0.87357  0.79456  1.0000
  N   N15       1.0  0.35283  0.13649  0.74009  1.0000
  N   N16       1.0  0.64490  0.86414  0.78654  1.0000
  C  Sn1       1.0  0.12106  0.52938  0.18454  1.0000
  C   C41       1.0  0.09736  0.53800  0.27736  1.0000
  C  Sn2       1.0  0.08825  0.57138  0.34783  1.0000
  C  Sn3       1.0  0.10313  0.59667  0.32496  1.0000
  C   C42       1.0  0.12681  0.58805  0.23216  1.0000
  C  Sn4       1.0  0.13594  0.55468  0.16167  1.0000
  O  Te1       1.0  0.12978  0.49585  0.11522  1.0000
  O  Te2       1.0  0.06451  0.57938  0.44017  1.0000
  O  Te3       1.0  0.09439  0.63022  0.39438  1.0000
  O  Te4       1.0  0.15966  0.54667  0.06936  1.0000
  Mg  Mg1       1.0  0.06085  0.62860  0.50981  1.0000
  Mg  Mg2       1.0  0.17465  0.58498  0.99958  1.0000
  C  Sn5       1.0  0.89243  0.47079  0.43175  1.0000
  C   C43       1.0  0.91358  0.46288  0.31847  1.0000
  C  Sn6       1.0  0.91214  0.43268  0.16403  1.0000
  C  Sn7       1.0  0.88909  0.40991  0.12187  1.0000
  C   C44       1.0  0.86796  0.41782  0.23510  1.0000
  C  Sn8       1.0  0.86938  0.44802  0.38959  1.0000
  O  Te5       1.0  0.89430  0.50112  0.58543  1.0000
  O  Te6       1.0  0.93354  0.42533  0.05287  1.0000
  O  Te7       1.0  0.89855  0.46709  0.96805  1.0000
  O  Te8       1.0  0.84800  0.45538  0.50070  1.0000
  Mg  Mg3       1.0  0.93288  0.46838  0.85869  1.0000
  Mg  Mg4       1.0  0.85994  0.49985  0.69486  1.0000
  C  Sn9       1.0  0.87951  0.52580  0.18278  1.0000
  C   C45       1.0  0.90792  0.53317  0.20763  1.0000
  C  Sn10      1.0  0.91786  0.56689  0.28827  1.0000
  C  Sn11      1.0  0.89901  0.59382  0.34537  1.0000
  C   C46       1.0  0.87061  0.58644  0.32055  1.0000
  C  Sn12      1.0  0.86066  0.55272  0.23989  1.0000
  O  Te9       1.0  0.87003  0.49190  0.10187  1.0000
  O  Te10      1.0  0.94635  0.57363  0.31161  1.0000
  O  Te11      1.0  0.90851  0.62774  0.42633  1.0000
  O  Te12      1.0  0.83218  0.54598  0.21656  1.0000
  Mg  Mg5       1.0  0.94918  0.62397  0.42879  1.0000
  Mg  Mg6       1.0  0.82933  0.49565  0.09949  1.0000
  C  Sn13      1.0  0.08510  0.41947  0.17582  1.0000
  C   C47       1.0  0.08854  0.45467  0.23887  1.0000
  C  Sn14      1.0  0.11499  0.46961  0.26996  1.0000
  C  Sn15      1.0  0.13848  0.44894  0.23726  1.0000
  C   C48       1.0  0.13503  0.41377  0.17422  1.0000
  C  Sn16      1.0  0.10859  0.39880  0.14312  1.0000
  O  Te13      1.0  0.05847  0.40508  0.14567  1.0000
  O  Te14      1.0  0.11791  0.50485  0.33306  1.0000
  O  Te15      1.0  0.16513  0.46337  0.26747  1.0000
  O  Te16      1.0  0.10566  0.36358  0.08003  1.0000
  Mg  Mg7       1.0  0.15846  0.51254  0.35360  1.0000
  Mg  Mg8       1.0  0.06513  0.35587  0.05936  1.0000
  C  Sn17      1.0  0.60770  0.09045  0.37413  1.0000
  C   C49       1.0  0.63114  0.08259  0.27888  1.0000
  C  Sn18      1.0  0.63365  0.05024  0.14188  1.0000
  C  Sn19      1.0  0.61229  0.02522  0.09910  1.0000
  C   C50       1.0  0.58888  0.03308  0.19429  1.0000
  C  Sn20      1.0  0.58634  0.06543  0.33134  1.0000
  O  Te17      1.0  0.60562  0.12297  0.51056  1.0000
  O  Te18      1.0  0.65728  0.04297  0.04858  1.0000
  O  Te19      1.0  0.62377  0.08021  0.96254  1.0000
  O  Te20      1.0  0.56273  0.07270  0.42459  1.0000
  Mg  Mg9       1.0  0.66187  0.08257  0.87390  1.0000
  Mg  Mg10      1.0  0.56943  0.12063  0.59923  1.0000
  C  Sn21      1.0  0.38462  0.97399  0.37404  1.0000
  C   C51       1.0  0.41195  0.96602  0.33321  1.0000
  C  Sn22      1.0  0.41911  0.93225  0.23560  1.0000
  C  Sn23      1.0  0.39853  0.90589  0.17748  1.0000
  C   C52       1.0  0.37122  0.91387  0.21828  1.0000
  C  Sn24      1.0  0.36404  0.94763  0.31592  1.0000
  O  Te21      1.0  0.37793  0.00792  0.47177  1.0000
  O  Te22      1.0  0.44657  0.92491  0.19647  1.0000
  O  Te23      1.0  0.40524  0.87194  0.07968  1.0000
  O  Te24      1.0  0.33660  0.95498  0.35503  1.0000
  Mg  Mg11      1.0  0.44546  0.87477  0.05958  1.0000
  Mg  Mg12      1.0  0.33768  0.00510  0.49182  1.0000
  C  Sn25      1.0  0.41379  0.07879  0.35459  1.0000
  C   C53       1.0  0.41176  0.04345  0.29042  1.0000
  C  Sn26      1.0  0.38816  0.02538  0.19034  1.0000
  C  Sn27      1.0  0.36614  0.04299  0.15354  1.0000
  C   C54       1.0  0.36819  0.07831  0.21767  1.0000
  C  Sn28      1.0  0.39178  0.09641  0.31779  1.0000
  O  Te25      1.0  0.43758  0.09634  0.45436  1.0000
  O  Te26      1.0  0.38465  0.99005  0.12766  1.0000
  O  Te27      1.0  0.34235  0.02541  0.05369  1.0000
  O  Te28      1.0  0.39335  0.13171  0.38043  1.0000
  Mg  Mg13      1.0  0.35932  0.06497  0.99754  1.0000
  Mg  Mg14      1.0  0.42999  0.14434  0.51048  1.0000
  C  Sn29      1.0  0.58755  0.92362  0.25416  1.0000
  C   C55       1.0  0.58958  0.95792  0.29046  1.0000
  C  Sn30      1.0  0.61503  0.97267  0.28996  1.0000
  C  Sn31      1.0  0.63896  0.95272  0.25228  1.0000
  C   C56       1.0  0.63692  0.91844  0.21598  1.0000
  C  Sn32      1.0  0.61148  0.90367  0.21648  1.0000
  O  Te29      1.0  0.56190  0.90941  0.25537  1.0000
  O  Te30      1.0  0.61654  0.00701  0.32670  1.0000
  O  Te31      1.0  0.66462  0.96697  0.25110  1.0000
  O  Te32      1.0  0.60996  0.86935  0.17974  1.0000
  Mg  Mg15      1.0  0.65615  0.01480  0.30916  1.0000
  Mg  Mg16      1.0  0.57036  0.86153  0.19715  1.0000
  C  Sn33      1.0  0.21345  0.66710  0.25939  1.0000
  C   C57       1.0  0.20970  0.69435  0.21875  1.0000
  C  Sn34      1.0  0.18336  0.70685  0.21287  1.0000
  C  Sn35      1.0  0.16028  0.69182  0.24846  1.0000
  C   C58       1.0  0.16404  0.66459  0.28910  1.0000
  C  Sn36      1.0  0.19038  0.65207  0.29498  1.0000
  O  Te33      1.0  0.23998  0.65501  0.26453  1.0000
  O  Te34      1.0  0.18012  0.73410  0.17188  1.0000
  O  Te35      1.0  0.13375  0.70393  0.24328  1.0000
  O  Te36      1.0  0.19362  0.62483  0.33597  1.0000
  Mg  Mg17      1.0  0.13988  0.74156  0.18124  1.0000
  Mg  Mg18      1.0  0.23385  0.61737  0.32674  1.0000
  C  Sn37      1.0  0.79752  0.35279  0.27213  1.0000
  C   C59       1.0  0.82620  0.34972  0.27590  1.0000
  C  Sn38      1.0  0.83790  0.31872  0.24705  1.0000
  C  Sn39      1.0  0.82058  0.29018  0.21362  1.0000
  C   C60       1.0  0.79191  0.29326  0.20984  1.0000
  C  Sn40      1.0  0.78019  0.32425  0.23871  1.0000
  O  Te37      1.0  0.78627  0.38403  0.30133  1.0000
  O  Te38      1.0  0.86663  0.31627  0.25153  1.0000
  O  Te39      1.0  0.83185  0.25893  0.18443  1.0000
  O  Te40      1.0  0.75148  0.32671  0.23421  1.0000
  Mg  Mg19      1.0  0.87214  0.26829  0.20373  1.0000
  Mg  Mg20      1.0  0.74595  0.37467  0.28190  1.0000
  C  Sn41      1.0  0.81711  0.68396  0.12555  1.0000
  C   C61       1.0  0.79054  0.68828  0.18431  1.0000
  C  Sn42      1.0  0.78354  0.67654  0.30326  1.0000
  C  Sn43      1.0  0.80352  0.66015  0.36486  1.0000
  C   C62       1.0  0.83007  0.65584  0.30613  1.0000
  C  Sn44      1.0  0.83709  0.66757  0.18714  1.0000
  O  Te41      1.0  0.82366  0.69589  0.00662  1.0000
  O  Te42      1.0  0.75683  0.68115  0.36008  1.0000
  O  Te43      1.0  0.79695  0.64821  0.48387  1.0000
  O  Te44      1.0  0.86378  0.66297  0.13036  1.0000
  Mg  Mg21      1.0  0.75785  0.66049  0.52273  1.0000
  Mg  Mg22      1.0  0.87410  0.77116  0.96779  1.0000
  C  Sn45      1.0  0.21339  0.33011  0.20879  1.0000
  C   C63       1.0  0.20947  0.30244  0.24464  1.0000
  C  Sn46      1.0  0.18292  0.28904  0.23340  1.0000
  C  Sn47      1.0  0.15981  0.30358  0.18522  1.0000
  C   C64       1.0  0.16374  0.33124  0.14937  1.0000
  C  Sn48      1.0  0.19028  0.34466  0.16061  1.0000
  O  Te45      1.0  0.24012  0.34310  0.22083  1.0000
  O  Te46      1.0  0.17952  0.26137  0.26991  1.0000
  O  Te47      1.0  0.13307  0.29057  0.17320  1.0000
  O  Te48      1.0  0.19369  0.37231  0.12410  1.0000
  Mg  Mg23      1.0  0.13903  0.25268  0.23548  1.0000
  Mg  Mg24      1.0  0.23417  0.38101  0.15840  1.0000
  C  Sn49      1.0  0.70233  0.16279  0.34223  1.0000
  C   C65       1.0  0.67354  0.16310  0.32196  1.0000
  C  Sn50      1.0  0.66082  0.18427  0.25861  1.0000
  C  Sn51      1.0  0.67721  0.20556  0.21448  1.0000
  C   C66       1.0  0.70599  0.20524  0.23473  1.0000
  C  Sn52      1.0  0.71873  0.18408  0.29811  1.0000
  O  Te49      1.0  0.71461  0.14142  0.40579  1.0000
  O  Te50      1.0  0.63200  0.18415  0.23952  1.0000
  O  Te51      1.0  0.66491  0.22694  0.15089  1.0000
  O  Te52      1.0  0.74754  0.18419  0.31717  1.0000
  Mg  Mg25      1.0  0.62491  0.21771  0.14778  1.0000
  Mg  Mg26      1.0  0.75464  0.15062  0.40881  1.0000
  C  Sn53      1.0  0.29051  0.82044  0.12690  1.0000
  C   C67       1.0  0.29266  0.79781  0.20039  1.0000
  C  Sn54      1.0  0.31479  0.80088  0.31888  1.0000
  C  Sn55      1.0  0.33518  0.82713  0.36498  1.0000
  C   C68       1.0  0.33303  0.84974  0.29154  1.0000
  C  Sn56      1.0  0.31091  0.84669  0.17300  1.0000
  O  Te53      1.0  0.26821  0.81690  0.00873  1.0000
  O  Te54      1.0  0.31650  0.77795  0.39057  1.0000
  O  Te55      1.0  0.35749  0.83065  0.48325  1.0000
  O  Te56      1.0  0.30919  0.86961  0.10135  1.0000
  Mg  Mg27      1.0  0.35075  0.79321  0.54575  1.0000
  Mg  Mg28      1.0  0.28626  0.94191  0.94623  1.0000
  C  Sn57      1.0  0.33737  0.19388  0.27315  1.0000
  C   C69       1.0  0.33487  0.16913  0.33191  1.0000
  C  Sn58      1.0  0.30880  0.15793  0.34848  1.0000
  C  Sn59      1.0  0.28473  0.17173  0.30533  1.0000
  C   C70       1.0  0.28725  0.19646  0.24659  1.0000
  C  Sn60      1.0  0.31331  0.20769  0.23000  1.0000
  O  Te57      1.0  0.36364  0.20470  0.25756  1.0000
  O  Te58      1.0  0.30681  0.13317  0.40755  1.0000
  O  Te59      1.0  0.25845  0.16088  0.32097  1.0000
  O  Te60      1.0  0.31530  0.23243  0.17094  1.0000
  Mg  Mg29      1.0  0.26644  0.12664  0.40694  1.0000
  Mg  Mg30      1.0  0.35566  0.23896  0.17142  1.0000
  C  Sn61      1.0  0.67003  0.82362  0.37153  1.0000
  C   C71       1.0  0.67204  0.84533  0.29350  1.0000
  C  Sn62      1.0  0.69254  0.84096  0.17947  1.0000
  C  Sn63      1.0  0.71144  0.81432  0.14258  1.0000
  C   C72       1.0  0.70943  0.79263  0.22057  1.0000
  C  Sn64      1.0  0.68893  0.79698  0.33464  1.0000
  O  Te61      1.0  0.64937  0.82846  0.48510  1.0000
  O  Te62      1.0  0.69414  0.86300  0.10309  1.0000
  O  Te63      1.0  0.73211  0.80950  0.02891  1.0000
  O  Te64      1.0  0.68732  0.77496  0.41098  1.0000
  Mg  Mg31      1.0  0.73720  0.93361  0.95711  1.0000
  Mg  Mg32      1.0  0.65559  0.79184  0.55690  1.0000
  C  Sn65      1.0  0.27267  0.73299  0.18068  1.0000
  C   C73       1.0  0.26932  0.76629  0.20325  1.0000
  C  Sn66      1.0  0.24537  0.78358  0.27000  1.0000
  C  Sn67      1.0  0.22434  0.76726  0.31524  1.0000
  C   C74       1.0  0.22770  0.73398  0.29269  1.0000
  C  Sn68      1.0  0.25164  0.71666  0.22592  1.0000
  O  Te65      1.0  0.29679  0.71619  0.11375  1.0000
  O  Te66      1.0  0.24248  0.81686  0.29133  1.0000
  O  Te67      1.0  0.20021  0.78409  0.38221  1.0000
  O  Te68      1.0  0.25454  0.68341  0.20461  1.0000
  Mg  Mg33      1.0  0.20588  0.82916  0.38742  1.0000
  Mg  Mg34      1.0  0.29114  0.67109  0.10862  1.0000
  C  Sn69      1.0  0.77491  0.24117  0.28924  1.0000
  C   C75       1.0  0.77191  0.26384  0.21635  1.0000
  C  Sn70      1.0  0.74565  0.27307  0.17928  1.0000
  C  Sn71      1.0  0.72188  0.25937  0.21591  1.0000
  C   C76       1.0  0.72488  0.23672  0.28877  1.0000
  C  Sn72      1.0  0.75114  0.22747  0.32587  1.0000
  O  Te69      1.0  0.80137  0.23231  0.32524  1.0000
  O  Te70      1.0  0.74317  0.29576  0.10637  1.0000
  O  Te71      1.0  0.69540  0.26825  0.17984  1.0000
  O  Te72      1.0  0.75362  0.20480  0.39875  1.0000
  Mg  Mg35      1.0  0.70271  0.30010  0.08080  1.0000
  Mg  Mg36      1.0  0.79408  0.20046  0.42446  1.0000
  C  Sn73      1.0  0.72352  0.73742  0.29832  1.0000
  C   C77       1.0  0.72878  0.76936  0.30609  1.0000
  C  Sn74      1.0  0.75456  0.77733  0.26814  1.0000
  C  Sn75      1.0  0.77551  0.75287  0.22135  1.0000
  C   C78       1.0  0.77023  0.72096  0.21358  1.0000
  C  Sn76      1.0  0.74446  0.71296  0.25153  1.0000
  O  Te73      1.0  0.69759  0.72999  0.33677  1.0000
  O  Te74      1.0  0.75935  0.80944  0.27685  1.0000
  O  Te75      1.0  0.80145  0.76033  0.18290  1.0000
  O  Te76      1.0  0.73967  0.68088  0.24282  1.0000
  Mg  Mg37      1.0  0.79799  0.80751  0.21274  1.0000
  Mg  Mg38      1.0  0.70104  0.68277  0.30681  1.0000
  C  Sn77      1.0  0.23670  0.21404  0.17019  1.0000
  C   C79       1.0  0.26515  0.22035  0.20867  1.0000
  C  Sn78      1.0  0.27619  0.25345  0.27431  1.0000
  C  Sn79      1.0  0.25842  0.28083  0.30219  1.0000
  C   C80       1.0  0.22999  0.27452  0.26375  1.0000
  C  Sn80      1.0  0.21893  0.24142  0.19807  1.0000
  O  Te77      1.0  0.22612  0.18075  0.10468  1.0000
  O  Te78      1.0  0.30471  0.25913  0.31174  1.0000
  O  Te79      1.0  0.26903  0.31414  0.36775  1.0000
  O  Te80      1.0  0.19044  0.23575  0.16068  1.0000
  Mg  Mg39      1.0  0.30926  0.30897  0.39880  1.0000
  Mg  Mg40      1.0  0.18586  0.18592  0.07371  1.0000
  C  Sn81      1.0  0.11604  0.53138  0.67337  1.0000
  C   C81       1.0  0.09482  0.54011  0.78649  1.0000
  C  Sn82      1.0  0.08752  0.57403  0.87720  1.0000
  C  Sn83      1.0  0.10172  0.59977  0.85432  1.0000
  C   C82       1.0  0.12292  0.59104  0.74124  1.0000
  C  Sn84      1.0  0.13023  0.55712  0.65049  1.0000
  O  Te81      1.0  0.12298  0.49730  0.58401  1.0000
  O  Te82      1.0  0.06625  0.58213  0.98961  1.0000
  O  Te83      1.0  0.09476  0.63387  0.94380  1.0000
  O  Te84      1.0  0.15149  0.54902  0.53812  1.0000
  Mg  Mg41      1.0  0.05302  0.54464  0.08223  1.0000
  Mg  Mg42      1.0  0.15341  0.49899  0.44537  1.0000
  C  Sn85      1.0  0.90862  0.40588  0.73463  1.0000
  C   C83       1.0  0.88043  0.40932  0.76073  1.0000
  C  Sn86      1.0  0.86687  0.43806  0.76923  1.0000
  C  Sn87      1.0  0.88180  0.46389  0.75115  1.0000
  C   C84       1.0  0.90997  0.46044  0.72503  1.0000
  C  Sn88      1.0  0.92355  0.43171  0.71655  1.0000
  O  Te85      1.0  0.92175  0.37693  0.72656  1.0000
  O  Te86      1.0  0.83868  0.44094  0.79548  1.0000
  O  Te87      1.0  0.86865  0.49285  0.75924  1.0000
  O  Te88      1.0  0.95172  0.42882  0.69028  1.0000
  Mg  Mg43      1.0  0.82999  0.48513  0.79694  1.0000
  Mg  Mg44      1.0  0.96043  0.38464  0.68871  1.0000
  C  Sn89      1.0  0.87610  0.57062  0.92408  1.0000
  C   C85       1.0  0.87599  0.58831  0.82371  1.0000
  C  Sn90      1.0  0.89467  0.58048  0.69551  1.0000
  C  Sn91      1.0  0.91385  0.55440  0.66695  1.0000
  C   C86       1.0  0.91394  0.53671  0.76726  1.0000
  C  Sn92      1.0  0.89527  0.54453  0.89552  1.0000
  O  Te89      1.0  0.84592  0.49134  0.05152  1.0000
  O  Te90      1.0  0.89418  0.59853  0.59685  1.0000
  O  Te91      1.0  0.93271  0.54615  0.53938  1.0000
  O  Te92      1.0  0.89575  0.52649  0.99412  1.0000
  Mg  Mg45      1.0  0.92397  0.57793  0.43852  1.0000
  Mg  Mg46      1.0  0.85464  0.45953  0.15240  1.0000
  C  Sn93      1.0  0.08435  0.42281  0.69171  1.0000
  C   C87       1.0  0.08756  0.45786  0.74839  1.0000
  C  Sn94      1.0  0.11368  0.47250  0.76182  1.0000
  C  Sn95      1.0  0.13708  0.45168  0.71758  1.0000
  C   C88       1.0  0.13386  0.41665  0.66091  1.0000
  C  Sn96      1.0  0.10775  0.40199  0.64746  1.0000
  O  Te93      1.0  0.05804  0.40871  0.67925  1.0000
  O  Te94      1.0  0.11637  0.50761  0.81886  1.0000
  O  Te95      1.0  0.16340  0.46581  0.73008  1.0000
  O  Te96      1.0  0.10506  0.36690  0.59044  1.0000
  Mg  Mg47      1.0  0.15650  0.51488  0.81419  1.0000
  Mg  Mg48      1.0  0.06493  0.35960  0.59497  1.0000
  C  Sn97      1.0  0.59515  0.09254  0.81708  1.0000
  C   C89       1.0  0.62379  0.08924  0.81471  1.0000
  C  Sn98      1.0  0.63340  0.05726  0.76088  1.0000
  C  Sn99      1.0  0.61596  0.02796  0.70821  1.0000
  C   C90       1.0  0.58734  0.03127  0.71056  1.0000
  C  Sn100     1.0  0.57577  0.06324  0.76441  1.0000
  O  Te97      1.0  0.58405  0.12476  0.87137  1.0000
  O  Te98      1.0  0.66210  0.05460  0.75968  1.0000
  O  Te99      1.0  0.62709  0.99573  0.65389  1.0000
  O  Te100     1.0  0.54709  0.06591  0.76559  1.0000
  Mg  Mg49      1.0  0.66738  0.00517  0.67491  1.0000
  Mg  Mg50      1.0  0.54373  0.11532  0.85025  1.0000
  C  Sn101     1.0  0.37491  0.97031  0.73798  1.0000
  C   C91       1.0  0.40268  0.97263  0.79727  1.0000
  C  Sn102     1.0  0.41449  0.94633  0.82550  1.0000
  C  Sn103     1.0  0.39820  0.91709  0.79369  1.0000
  C   C92       1.0  0.37044  0.91478  0.73441  1.0000
  C  Sn104     1.0  0.35862  0.94107  0.70617  1.0000
  O  Te101     1.0  0.36354  0.99690  0.71064  1.0000
  O  Te102     1.0  0.44230  0.94924  0.88487  1.0000
  O  Te103     1.0  0.40959  0.89049  0.82109  1.0000
  O  Te104     1.0  0.33083  0.93817  0.64681  1.0000
  Mg  Mg51      1.0  0.44839  0.90628  0.90256  1.0000
  Mg  Mg52      1.0  0.32472  0.98111  0.62899  1.0000
  C  Sn105     1.0  0.37525  0.06943  0.90770  1.0000
  C   C93       1.0  0.37582  0.09185  0.83283  1.0000
  C  Sn106     1.0  0.39245  0.08744  0.69848  1.0000
  C  Sn107     1.0  0.41082  0.06003  0.63760  1.0000
  C   C94       1.0  0.41024  0.03762  0.71243  1.0000
  C  Sn108     1.0  0.39362  0.04202  0.84682  1.0000
  O  Te105     1.0  0.34711  0.98679  0.04186  1.0000
  O  Te106     1.0  0.39072  0.11020  0.62571  1.0000
  O  Te107     1.0  0.42764  0.05516  0.50333  1.0000
  O  Te108     1.0  0.39533  0.01927  0.91955  1.0000
  Mg  Mg53      1.0  0.41782  0.09290  0.44591  1.0000
  Mg  Mg54      1.0  0.35692  0.94902  0.09929  1.0000
  C  Sn109     1.0  0.61262  0.93977  0.58353  1.0000
  C   C95       1.0  0.58746  0.94705  0.66111  1.0000
  C  Sn110     1.0  0.58256  0.93826  0.79408  1.0000
  C  Sn111     1.0  0.60324  0.92187  0.85078  1.0000
  C   C96       1.0  0.62838  0.91460  0.77325  1.0000
  C  Sn112     1.0  0.63330  0.92338  0.64024  1.0000
  O  Te109     1.0  0.61708  0.94879  0.45083  1.0000
  O  Te110     1.0  0.55724  0.94579  0.86960  1.0000
  O  Te111     1.0  0.59876  0.91285  0.98360  1.0000
  O  Te112     1.0  0.65860  0.91586  0.56476  1.0000
  Mg  Mg55      1.0  0.54964  0.84095  0.04596  1.0000
  Mg  Mg56      1.0  0.65491  0.93318  0.38846  1.0000
  C  Sn113     1.0  0.19743  0.66820  0.86076  1.0000
  C   C97       1.0  0.16910  0.66624  0.81470  1.0000
  C  Sn114     1.0  0.15842  0.68249  0.71775  1.0000
  C  Sn115     1.0  0.17643  0.70107  0.66564  1.0000
  C   C98       1.0  0.20473  0.70301  0.71167  1.0000
  C  Sn116     1.0  0.21543  0.68678  0.80866  1.0000
  O  Te113     1.0  0.20765  0.65176  0.95773  1.0000
  O  Te114     1.0  0.13004  0.68018  0.67331  1.0000
  O  Te115     1.0  0.16618  0.71751  0.56860  1.0000
  O  Te116     1.0  0.24380  0.68908  0.85306  1.0000
  Mg  Mg57      1.0  0.12600  0.70693  0.53986  1.0000
  Mg  Mg58      1.0  0.24786  0.66232  0.98642  1.0000
  C  Sn117     1.0  0.84165  0.29919  0.75637  1.0000
  C   C99       1.0  0.83907  0.32340  0.69304  1.0000
  C  Sn118     1.0  0.81313  0.33541  0.67149  1.0000
  C  Sn119     1.0  0.78927  0.32298  0.71424  1.0000
  C   C100      1.0  0.79185  0.29879  0.77755  1.0000
  C  Sn120     1.0  0.81778  0.28676  0.79911  1.0000
  O  Te117     1.0  0.86779  0.28754  0.77687  1.0000
  O  Te118     1.0  0.81107  0.35961  0.60791  1.0000
  O  Te119     1.0  0.76312  0.33465  0.69367  1.0000
  O  Te120     1.0  0.81985  0.26259  0.86268  1.0000
  Mg  Mg59      1.0  0.77093  0.36767  0.60271  1.0000
  Mg  Mg60      1.0  0.85998  0.25452  0.86802  1.0000
  C  Sn121     1.0  0.78967  0.66690  0.79196  1.0000
  C   C101      1.0  0.79323  0.69904  0.79856  1.0000
  C  Sn122     1.0  0.81793  0.70810  0.75301  1.0000
  C  Sn123     1.0  0.83952  0.68454  0.69964  1.0000
  C   C102      1.0  0.83595  0.65243  0.69302  1.0000
  C  Sn124     1.0  0.81125  0.64335  0.73858  1.0000
  O  Te121     1.0  0.76480  0.65839  0.83806  1.0000
  O  Te122     1.0  0.82102  0.74037  0.76070  1.0000
  O  Te123     1.0  0.86440  0.69309  0.65352  1.0000
  O  Te124     1.0  0.80816  0.61109  0.73088  1.0000
  Mg  Mg61      1.0  0.85872  0.74009  0.68501  1.0000
  Mg  Mg62      1.0  0.77046  0.61135  0.80646  1.0000
  C  Sn125     1.0  0.17264  0.29025  0.68790  1.0000
  C   C103      1.0  0.20097  0.29043  0.66749  1.0000
  C  Sn126     1.0  0.21382  0.31826  0.66138  1.0000
  C  Sn127     1.0  0.19804  0.34652  0.67608  1.0000
  C   C104      1.0  0.16973  0.34634  0.69650  1.0000
  C  Sn128     1.0  0.15685  0.31852  0.70260  1.0000
  O  Te125     1.0  0.16022  0.26216  0.69368  1.0000
  O  Te126     1.0  0.24217  0.31784  0.64083  1.0000
  O  Te127     1.0  0.21049  0.37463  0.67028  1.0000
  O  Te128     1.0  0.12852  0.31893  0.72317  1.0000
  Mg  Mg63      1.0  0.24968  0.36211  0.64055  1.0000
  Mg  Mg64      1.0  0.12099  0.27469  0.72355  1.0000
  C  Sn129     1.0  0.66574  0.17866  0.64483  1.0000
  C   C105      1.0  0.66744  0.15678  0.72286  1.0000
  C  Sn130     1.0  0.68978  0.15960  0.83959  1.0000
  C  Sn131     1.0  0.71084  0.18484  0.87924  1.0000
  C   C106      1.0  0.70912  0.20671  0.80126  1.0000
  C  Sn132     1.0  0.68680  0.20390  0.68448  1.0000
  O  Te129     1.0  0.64322  0.17538  0.52853  1.0000
  O  Te130     1.0  0.69104  0.13742  0.91592  1.0000
  O  Te131     1.0  0.73336  0.18811  0.99565  1.0000
  O  Te132     1.0  0.68553  0.22606  0.60820  1.0000
  Mg  Mg65      1.0  0.71450  0.06443  0.06621  1.0000
  Mg  Mg66      1.0  0.65075  0.21156  0.45797  1.0000
  C  Sn133     1.0  0.32086  0.80538  0.83018  1.0000
  C   C107      1.0  0.29248  0.80393  0.78678  1.0000
  C  Sn134     1.0  0.28123  0.82455  0.71528  1.0000
  C  Sn135     1.0  0.29871  0.84709  0.68644  1.0000
  C   C108      1.0  0.32708  0.84853  0.72980  1.0000
  C  Sn136     1.0  0.33835  0.82792  0.80134  1.0000
  O  Te133     1.0  0.33166  0.78453  0.90151  1.0000
  O  Te134     1.0  0.25279  0.82265  0.67300  1.0000
  O  Te135     1.0  0.28789  0.86795  0.61506  1.0000
  O  Te136     1.0  0.36677  0.82981  0.84359  1.0000
  Mg  Mg67      1.0  0.24787  0.85615  0.57887  1.0000
  Mg  Mg68      1.0  0.37171  0.79631  0.93764  1.0000
  C  Sn137     1.0  0.28911  0.17715  0.84781  1.0000
  C   C109      1.0  0.29261  0.20722  0.83220  1.0000
  C  Sn138     1.0  0.31606  0.21266  0.76100  1.0000
  C  Sn139     1.0  0.33643  0.18752  0.70410  1.0000
  C   C110      1.0  0.33292  0.15747  0.71969  1.0000
  C  Sn140     1.0  0.30948  0.15201  0.79091  1.0000
  O  Te137     1.0  0.26550  0.17225  0.91938  1.0000
  O  Te138     1.0  0.31911  0.24292  0.74679  1.0000
  O  Te139     1.0  0.36005  0.19244  0.63249  1.0000
  O  Te140     1.0  0.30642  0.12176  0.80510  1.0000
  Mg  Mg69      1.0  0.35485  0.23781  0.64041  1.0000
  Mg  Mg70      1.0  0.27068  0.12684  0.91137  1.0000
  C  Sn141     1.0  0.66267  0.80672  0.80917  1.0000
  C   C111      1.0  0.66636  0.83929  0.82146  1.0000
  C  Sn142     1.0  0.69116  0.84881  0.77917  1.0000
  C  Sn143     1.0  0.71273  0.82527  0.72331  1.0000
  C   C112      1.0  0.70903  0.79272  0.71102  1.0000
  C  Sn144     1.0  0.68423  0.78319  0.75331  1.0000
  O  Te141     1.0  0.63769  0.79775  0.85210  1.0000
  O  Te142     1.0  0.69437  0.88152  0.79253  1.0000
  O  Te143     1.0  0.73771  0.83427  0.68038  1.0000
  O  Te144     1.0  0.68101  0.75050  0.73994  1.0000
  Mg  Mg71      1.0  0.73219  0.88175  0.71942  1.0000
  Mg  Mg72      1.0  0.64320  0.75023  0.81293  1.0000
  C  Sn145     1.0  0.26166  0.72559  0.75417  1.0000
  C   C113      1.0  0.23385  0.73137  0.78769  1.0000
  C  Sn146     1.0  0.22089  0.75902  0.77860  1.0000
  C  Sn147     1.0  0.23605  0.78135  0.73500  1.0000
  C   C114      1.0  0.26384  0.77556  0.70148  1.0000
  C  Sn148     1.0  0.27682  0.74792  0.71057  1.0000
  O  Te145     1.0  0.27419  0.69779  0.76400  1.0000
  O  Te146     1.0  0.19306  0.76429  0.81271  1.0000
  O  Te147     1.0  0.22349  0.80917  0.72520  1.0000
  O  Te148     1.0  0.30463  0.74265  0.67646  1.0000
  Mg  Mg73      1.0  0.18516  0.80567  0.78277  1.0000
  Mg  Mg74      1.0  0.31255  0.70127  0.70627  1.0000
  C  Sn149     1.0  0.73965  0.27987  0.81151  1.0000
  C   C115      1.0  0.76816  0.27530  0.80830  1.0000
  C  Sn150     1.0  0.77878  0.24306  0.76246  1.0000
  C  Sn151     1.0  0.76054  0.21479  0.71882  1.0000
  C   C116      1.0  0.73205  0.21937  0.72202  1.0000
  C  Sn152     1.0  0.72140  0.25161  0.76787  1.0000
  O  Te149     1.0  0.72948  0.31233  0.85771  1.0000
  O  Te150     1.0  0.80736  0.23912  0.76024  1.0000
  O  Te151     1.0  0.77073  0.18232  0.67260  1.0000
  O  Te152     1.0  0.69284  0.25555  0.77007  1.0000
  Mg  Mg75      1.0  0.81123  0.18986  0.68859  1.0000
  Mg  Mg76      1.0  0.68895  0.30480  0.84161  1.0000
  C  Sn153     1.0  0.73703  0.72184  0.78095  1.0000
  C   C117      1.0  0.76354  0.71877  0.72197  1.0000
  C  Sn154     1.0  0.77461  0.74378  0.68385  1.0000
  C  Sn155     1.0  0.75888  0.77247  0.70522  1.0000
  C   C118      1.0  0.73239  0.77553  0.76419  1.0000
  C  Sn156     1.0  0.72130  0.75053  0.80232  1.0000
  O  Te153     1.0  0.72638  0.69652  0.81829  1.0000
  O  Te154     1.0  0.80115  0.74015  0.62501  1.0000
  O  Te155     1.0  0.76956  0.79779  0.66782  1.0000
  O  Te156     1.0  0.69478  0.75415  0.86115  1.0000
  Mg  Mg77      1.0  0.80666  0.78141  0.59140  1.0000
  Mg  Mg78      1.0  0.68926  0.71292  0.89489  1.0000
  C  Sn157     1.0  0.26369  0.28035  0.74575  1.0000
  C   C119      1.0  0.23551  0.27310  0.69767  1.0000
  C  Sn158     1.0  0.22281  0.24503  0.70225  1.0000
  C  Sn159     1.0  0.23860  0.22377  0.75611  1.0000
  C   C120      1.0  0.26675  0.23103  0.80418  1.0000
  C  Sn160     1.0  0.27947  0.25910  0.79961  1.0000
  O  Te157     1.0  0.27595  0.30855  0.74019  1.0000
  O  Te158     1.0  0.19462  0.23828  0.65353  1.0000
  O  Te159     1.0  0.22630  0.19555  0.76164  1.0000
  O  Te160     1.0  0.30765  0.26584  0.84833  1.0000
  Mg  Mg79      1.0  0.18728  0.19690  0.68295  1.0000
  Mg  Mg80      1.0  0.31500  0.30723  0.81904  1.0000
