data_image0
_chemical_formula_structural       H24C60S24N32C2Sn2C2HTe2HMgC2Sn2C2HTe2HMgC2Sn2C2HTe2HMgC2Sn2C2HTe2HMgC2Sn2C2HTe2HMgC2Sn2C2HTe2HMgC2Sn2C2HTe2HMgC2Sn2C2HTe2HMgC2Sn2C2HTe2HMgC2Sn2C2HTe2HMgC2Sn2C2HTe2HMgC2Sn2C2HTe2HMgC2Sn2C2HTe2HMgC2Sn2C2HTe2HMgC2Sn2C2HTe2HMgC2Sn2C2HTe2HMgC2Sn2C2HTe2HMgC2Sn2C2HTe2HMgC2Sn2C2HTe2HMgC2Sn2C2HTe2HMgC2Sn2C2HTe2HMgC2Sn2C2HTe2HMgC2Sn2C2HTe2HMgC2Sn2C2HTe2HMgC2Sn2C2HTe2HMgC2Sn2C2HTe2HMgC2Sn2C2HTe2HMgC2Sn2C2HTe2HMgC2Sn2C2HTe2HMgC2Sn2C2HTe2HMgC2Sn2C2HTe2HMgC2Sn2C2HTe2HMgC2Sn2C2HTe2HMgC2Sn2C2HTe2HMgC2Sn2C2HTe2HMgC2Sn2C2HTe2HMgC2Sn2C2HTe2HMgC2Sn2C2HTe2HMgC2Sn2C2HTe2HMgC2Sn2C2HTe2HMgC2Sn2C2HTe2HMgC2Sn2C2HTe2HMgC2Sn2C2HTe2HMgC2Sn2C2HTe2HMgC2Sn2C2HTe2HMgC2Sn2C2HTe2HMgC2Sn2C2HTe2HMgC2Sn2C2HTe2HMg
_chemical_formula_sum              "H120 C252 S24 N32 Sn96 Te96 Mg48"
_cell_length_a       10.344
_cell_length_b       87.8834
_cell_length_c       27.1818
_cell_angle_alpha    90.5872
_cell_angle_beta     90.5697
_cell_angle_gamma    90.2136

_symmetry_space_group_name_H-M    'P1'
_space_group_IT_number       1

loop_
  _space_group_symop_operation_xyz
  'x, y, z'

loop_
  _atom_site_type_symbol
  _atom_site_label
  _atom_site_symmetry_multiplicity
  _atom_site_fract_x
  _atom_site_fract_y
  _atom_site_fract_z
  _atom_site_occupancy
  H   H1        1.0  0.65297  0.80232  0.29766  1.0000
  H   H2        1.0  0.34630  0.19576  0.28287  1.0000
  H   H3        1.0  0.34926  0.80134  0.70784  1.0000
  H   H4        1.0  0.66744  0.19066  0.72531  1.0000
  H   H5        1.0  0.14825  0.30741  0.28057  1.0000
  H   H6        1.0  0.86225  0.70108  0.30031  1.0000
  H   H7        1.0  0.82001  0.30860  0.72933  1.0000
  H   H8        1.0  0.11874  0.70262  0.69394  1.0000
  H   H9        1.0  0.33655  0.19263  0.71203  1.0000
  H   H10       1.0  0.69814  0.80894  0.72522  1.0000
  H   H11       1.0  0.62681  0.19738  0.29243  1.0000
  H   H12       1.0  0.32814  0.80969  0.27828  1.0000
  H   H13       1.0  0.80730  0.68962  0.72240  1.0000
  H   H14       1.0  0.14725  0.30231  0.70508  1.0000
  H   H15       1.0  0.19150  0.68975  0.27478  1.0000
  H   H16       1.0  0.87479  0.30448  0.29339  1.0000
  H   H17       1.0  0.27064  0.39887  0.44860  1.0000
  H   H18       1.0  0.74965  0.60145  0.43615  1.0000
  H   H19       1.0  0.76522  0.39712  0.43344  1.0000
  H   H20       1.0  0.24645  0.60212  0.56157  1.0000
  H   H21       1.0  0.74559  0.89845  0.44461  1.0000
  H   H22       1.0  0.31545  0.10417  0.55675  1.0000
  H   H23       1.0  0.27741  0.89711  0.43753  1.0000
  H   H24       1.0  0.78609  0.10043  0.55304  1.0000
  C   C1        1.0  0.73747  0.75799  0.12012  1.0000
  C   C2        1.0  0.25760  0.24332  0.11486  1.0000
  C   C3        1.0  0.25553  0.75707  0.88315  1.0000
  C   C4        1.0  0.73257  0.24158  0.88704  1.0000
  C   C5        1.0  0.25785  0.25894  0.11471  1.0000
  C   C6        1.0  0.73640  0.74246  0.11978  1.0000
  C   C7        1.0  0.73838  0.25721  0.88651  1.0000
  C   C8        1.0  0.24702  0.74158  0.88302  1.0000
  C   C9        1.0  0.26162  0.24149  0.87960  1.0000
  C   C10       1.0  0.74273  0.75716  0.88371  1.0000
  C   C11       1.0  0.74495  0.24237  0.12081  1.0000
  C   C12       1.0  0.26477  0.75799  0.11760  1.0000
  C   C13       1.0  0.74054  0.74150  0.88341  1.0000
  C   C14       1.0  0.25663  0.25704  0.87823  1.0000
  C   C15       1.0  0.25785  0.74235  0.11857  1.0000
  C   C16       1.0  0.75259  0.25793  0.12136  1.0000
  C   C17       1.0  0.74245  0.79570  0.29440  1.0000
  C   C18       1.0  0.27564  0.20506  0.28512  1.0000
  C   C19       1.0  0.25789  0.79507  0.71191  1.0000
  C   C20       1.0  0.72007  0.20136  0.71934  1.0000
  C   C21       1.0  0.22250  0.29849  0.28440  1.0000
  C   C22       1.0  0.76378  0.70501  0.29173  1.0000
  C   C23       1.0  0.77754  0.29730  0.72156  1.0000
  C   C24       1.0  0.21780  0.70569  0.70519  1.0000
  C   C25       1.0  0.26965  0.20230  0.70935  1.0000
  C   C26       1.0  0.73920  0.79757  0.71822  1.0000
  C   C27       1.0  0.71950  0.20345  0.28895  1.0000
  C   C28       1.0  0.27768  0.79880  0.28372  1.0000
  C   C29       1.0  0.76981  0.70115  0.71563  1.0000
  C   C30       1.0  0.23353  0.29500  0.70698  1.0000
  C   C31       1.0  0.22539  0.70142  0.28267  1.0000
  C   C32       1.0  0.80073  0.29550  0.29418  1.0000
  C   C33       1.0  0.72448  0.74986  0.02697  1.0000
  C   C34       1.0  0.26324  0.25073  0.02171  1.0000
  C   C35       1.0  0.27057  0.74927  0.97545  1.0000
  C   C36       1.0  0.72463  0.25014  0.97912  1.0000
  C   C37       1.0  0.26774  0.25037  0.97171  1.0000
  C   C38       1.0  0.72964  0.74959  0.97688  1.0000
  C   C39       1.0  0.73335  0.25025  0.02895  1.0000
  C   C40       1.0  0.27791  0.74932  0.02546  1.0000
  C   C41       1.0  0.56263  0.03654  0.49817  1.0000
  C   C42       1.0  0.42607  0.96359  0.49872  1.0000
  C   C43       1.0  0.43106  0.03701  0.49981  1.0000
  C   C44       1.0  0.55773  0.96384  0.49911  1.0000
  C   C45       1.0  0.06377  0.53619  0.50334  1.0000
  C   C46       1.0  0.93753  0.46367  0.49025  1.0000
  C   C47       1.0  0.93271  0.53611  0.49632  1.0000
  C   C48       1.0  0.06778  0.46392  0.49741  1.0000
  C   C49       1.0  0.71921  0.90224  0.48194  1.0000
  C   C50       1.0  0.29109  0.09940  0.52017  1.0000
  C   C51       1.0  0.27578  0.90141  0.47579  1.0000
  C   C52       1.0  0.74858  0.09719  0.51633  1.0000
  C   C53       1.0  0.24236  0.40277  0.48553  1.0000
  C   C54       1.0  0.77865  0.59772  0.47322  1.0000
  C   C55       1.0  0.77567  0.40176  0.47111  1.0000
  C   C56       1.0  0.21805  0.59807  0.52453  1.0000
  C   C57       1.0  0.48966  0.00799  0.49822  1.0000
  C   C58       1.0  0.48889  0.99245  0.49890  1.0000
  C   C59       1.0  0.99549  0.50767  0.50626  1.0000
  C   C60       1.0  0.99628  0.49217  0.50511  1.0000
  S   S1        1.0  0.72020  0.73320  0.06254  1.0000
  S   S2        1.0  0.26139  0.26768  0.05674  1.0000
  S   S3        1.0  0.25937  0.73241  0.93992  1.0000
  S   S4        1.0  0.72268  0.26669  0.94372  1.0000
  S   S5        1.0  0.26190  0.23406  0.05706  1.0000
  S   S6        1.0  0.71986  0.76683  0.06228  1.0000
  S   S7        1.0  0.70771  0.23321  0.94493  1.0000
  S   S8        1.0  0.27754  0.76612  0.94082  1.0000
  S   S9        1.0  0.26766  0.26679  0.93511  1.0000
  S   S10       1.0  0.72839  0.73267  0.94141  1.0000
  S   S11       1.0  0.74531  0.26711  0.06419  1.0000
  S   S12       1.0  0.27658  0.73283  0.06133  1.0000
  S   S13       1.0  0.73392  0.76623  0.94165  1.0000
  S   S14       1.0  0.27866  0.23320  0.93804  1.0000
  S   S15       1.0  0.29437  0.76618  0.05991  1.0000
  S   S16       1.0  0.72971  0.23336  0.06305  1.0000
  S   S17       1.0  0.63555  0.01857  0.49570  1.0000
  S   S18       1.0  0.34640  0.98121  0.49870  1.0000
  S   S19       1.0  0.34915  0.01946  0.49953  1.0000
  S   S20       1.0  0.63379  0.98170  0.49932  1.0000
  S   S21       1.0  0.13788  0.51864  0.51492  1.0000
  S   S22       1.0  0.85507  0.48099  0.49696  1.0000
  S   S23       1.0  0.85291  0.51852  0.49995  1.0000
  S   S24       1.0  0.13938  0.48150  0.51282  1.0000
  N   N1        1.0  0.82958  0.79646  0.32852  1.0000
  N   N2        1.0  0.20993  0.20748  0.32450  1.0000
  N   N3        1.0  0.16528  0.79652  0.68004  1.0000
  N   N4        1.0  0.76560  0.20527  0.67700  1.0000
  N   N5        1.0  0.28865  0.29683  0.32452  1.0000
  N   N6        1.0  0.66815  0.70130  0.31956  1.0000
  N   N7        1.0  0.74231  0.29297  0.67773  1.0000
  N   N8        1.0  0.31502  0.70143  0.67892  1.0000
  N   N9        1.0  0.20787  0.20533  0.66907  1.0000
  N   N10       1.0  0.77263  0.79300  0.67474  1.0000
  N   N11       1.0  0.80958  0.20208  0.32156  1.0000
  N   N12       1.0  0.23690  0.79439  0.32622  1.0000
  N   N13       1.0  0.73951  0.70593  0.67209  1.0000
  N   N14       1.0  0.31875  0.29513  0.67255  1.0000
  N   N15       1.0  0.25397  0.70607  0.32690  1.0000
  N   N16       1.0  0.73288  0.29316  0.33340  1.0000
  N   N17       1.0  0.70101  0.89292  0.51767  1.0000
  N   N18       1.0  0.26804  0.10796  0.48271  1.0000
  N   N19       1.0  0.27450  0.89247  0.51321  1.0000
  N   N20       1.0  0.71392  0.10695  0.48356  1.0000
  N   N21       1.0  0.21919  0.39347  0.52106  1.0000
  N   N22       1.0  0.80001  0.60719  0.50909  1.0000
  N   N23       1.0  0.77541  0.39335  0.50988  1.0000
  N   N24       1.0  0.19947  0.60724  0.48835  1.0000
  N   N25       1.0  0.21013  0.32950  0.50219  1.0000
  N   N26       1.0  0.78149  0.67111  0.49735  1.0000
  N   N27       1.0  0.76257  0.32905  0.50687  1.0000
  N   N28       1.0  0.20829  0.67109  0.49862  1.0000
  N   N29       1.0  0.72497  0.82894  0.50428  1.0000
  N   N30       1.0  0.29331  0.17201  0.49386  1.0000
  N   N31       1.0  0.25945  0.82835  0.50392  1.0000
  N   N32       1.0  0.73761  0.17080  0.50031  1.0000
  C   C61       1.0  0.89003  0.82044  0.39434  1.0000
  C   C62       1.0  0.82987  0.80725  0.37611  1.0000
  C  Sn1       1.0  0.72088  0.80138  0.39933  1.0000
  C  Sn2       1.0  0.67139  0.80889  0.44156  1.0000
  C   C63       1.0  0.73222  0.82208  0.45949  1.0000
  C   C64       1.0  0.84125  0.82785  0.43598  1.0000
  H   H25       1.0  0.97435  0.82491  0.37614  1.0000
  O  Te1       1.0  0.66198  0.78819  0.38065  1.0000
  O  Te2       1.0  0.56256  0.80327  0.46547  1.0000
  H   H26       1.0  0.88776  0.83807  0.45008  1.0000
  Mg  Mg1       1.0  0.51611  0.78494  0.42606  1.0000
  C   C65       1.0  0.37939  0.19394  0.42687  1.0000
  C   C66       1.0  0.29316  0.18396  0.44930  1.0000
  C  Sn3       1.0  0.17296  0.18082  0.42752  1.0000
  C  Sn4       1.0  0.13874  0.18782  0.38244  1.0000
  C   C67       1.0  0.22573  0.19778  0.36028  1.0000
  C   C68       1.0  0.34574  0.20085  0.38240  1.0000
  H   H27       1.0  0.47227  0.19631  0.44397  1.0000
  O  Te3       1.0  0.08794  0.17082  0.45042  1.0000
  O  Te4       1.0  0.01926  0.18488  0.35987  1.0000
  H   H28       1.0  0.41252  0.20857  0.36502  1.0000
  Mg  Mg2       1.0  0.93631  0.17043  0.40534  1.0000
  C   C69       1.0  0.30466  0.80014  0.59280  1.0000
  C   C70       1.0  0.22046  0.80381  0.63097  1.0000
  C  Sn5       1.0  0.13727  0.81623  0.62673  1.0000
  C  Sn6       1.0  0.13861  0.82510  0.58343  1.0000
  C   C71       1.0  0.22316  0.82132  0.54543  1.0000
  C   C72       1.0  0.30601  0.80888  0.55007  1.0000
  H   H29       1.0  0.36873  0.79050  0.59637  1.0000
  O  Te5       1.0  0.05379  0.81975  0.66523  1.0000
  O  Te6       1.0  0.05646  0.83757  0.57822  1.0000
  H   H30       1.0  0.37114  0.80603  0.52049  1.0000
  Mg  Mg3       1.0  0.96017  0.83783  0.64081  1.0000
  C   C73       1.0  0.81178  0.19711  0.55465  1.0000
  C   C74       1.0  0.77105  0.18216  0.54551  1.0000
  C  Sn7       1.0  0.71057  0.17385  0.58237  1.0000
  C  Sn8       1.0  0.69058  0.18067  0.62920  1.0000
  C   C75       1.0  0.73159  0.19564  0.63797  1.0000
  C   C76       1.0  0.79206  0.20384  0.60083  1.0000
  H   H31       1.0  0.85850  0.20346  0.52592  1.0000
  O  Te7       1.0  0.67053  0.15892  0.57262  1.0000
  O  Te8       1.0  0.63034  0.17263  0.66669  1.0000
  H   H32       1.0  0.82350  0.21542  0.60791  1.0000
  Mg  Mg4       1.0  0.59295  0.15260  0.63556  1.0000
  C   C77       1.0  0.10600  0.31464  0.41722  1.0000
  C   C78       1.0  0.19851  0.32026  0.45059  1.0000
  C  Sn9       1.0  0.33007  0.31912  0.44007  1.0000
  C  Sn10      1.0  0.36945  0.31222  0.39527  1.0000
  C   C79       1.0  0.27614  0.30664  0.36211  1.0000
  C   C80       1.0  0.14475  0.30783  0.37301  1.0000
  H   H33       1.0  0.00434  0.31557  0.42564  1.0000
  O  Te9       1.0  0.42123  0.32479  0.47382  1.0000
  O  Te10      1.0  0.50029  0.31093  0.38382  1.0000
  H   H34       1.0  0.07314  0.30349  0.34715  1.0000
  Mg  Mg5       1.0  0.58806  0.32038  0.44162  1.0000
  C   C81       1.0  0.63831  0.67299  0.40784  1.0000
  C   C82       1.0  0.73512  0.67609  0.44278  1.0000
  C  Sn11      1.0  0.81215  0.68910  0.43880  1.0000
  C  Sn12      1.0  0.79161  0.69918  0.39906  1.0000
  C   C83       1.0  0.69445  0.69599  0.36431  1.0000
  C   C84       1.0  0.61796  0.68293  0.36864  1.0000
  H   H35       1.0  0.57908  0.66289  0.41121  1.0000
  O  Te11      1.0  0.90848  0.69202  0.47402  1.0000
  O  Te12      1.0  0.86716  0.71227  0.39420  1.0000
  H   H36       1.0  0.54295  0.68054  0.34160  1.0000
  Mg  Mg6       1.0  0.98640  0.71133  0.45151  1.0000
  C   C85       1.0  0.66920  0.29905  0.58247  1.0000
  C   C86       1.0  0.74429  0.30058  0.62527  1.0000
  C  Sn13      1.0  0.82607  0.31315  0.63179  1.0000
  C  Sn14      1.0  0.83257  0.32437  0.59472  1.0000
  C   C87       1.0  0.75698  0.32273  0.55205  1.0000
  C   C88       1.0  0.67551  0.31011  0.54589  1.0000
  H   H37       1.0  0.60610  0.28929  0.57771  1.0000
  O  Te13      1.0  0.90047  0.31450  0.67476  1.0000
  O  Te14      1.0  0.91345  0.33704  0.60030  1.0000
  H   H38       1.0  0.61732  0.30893  0.51277  1.0000
  Mg  Mg7       1.0  0.99602  0.33381  0.66537  1.0000
  C   C89       1.0  0.35845  0.67696  0.61419  1.0000
  C   C90       1.0  0.31365  0.69114  0.63015  1.0000
  C  Sn15      1.0  0.22126  0.69895  0.60246  1.0000
  C  Sn16      1.0  0.17297  0.69240  0.55798  1.0000
  C   C91       1.0  0.21834  0.67821  0.54234  1.0000
  C   C92       1.0  0.31084  0.67050  0.57033  1.0000
  H   H39       1.0  0.42997  0.67099  0.63586  1.0000
  O  Te15      1.0  0.17758  0.71310  0.61893  1.0000
  O  Te16      1.0  0.08056  0.69996  0.52959  1.0000
  H   H40       1.0  0.34545  0.65952  0.55798  1.0000
  Mg  Mg8       1.0  0.05106  0.71898  0.56742  1.0000
  C   C93       1.0  0.11626  0.19240  0.58195  1.0000
  C   C94       1.0  0.20498  0.19574  0.61967  1.0000
  C  Sn17      1.0  0.33460  0.19161  0.61495  1.0000
  C  Sn18      1.0  0.37589  0.18400  0.57162  1.0000
  C   C95       1.0  0.28639  0.18072  0.53408  1.0000
  C   C96       1.0  0.15691  0.18489  0.53919  1.0000
  H   H41       1.0  0.01608  0.19564  0.58588  1.0000
  O  Te17      1.0  0.42196  0.19504  0.65300  1.0000
  O  Te18      1.0  0.50488  0.17975  0.56594  1.0000
  H   H42       1.0  0.08825  0.18231  0.50997  1.0000
  Mg  Mg9       1.0  0.58747  0.18692  0.62803  1.0000
  C   C97       1.0  0.84532  0.80018  0.57998  1.0000
  C   C98       1.0  0.77642  0.80147  0.62378  1.0000
  C  Sn19      1.0  0.67670  0.81206  0.62808  1.0000
  C  Sn20      1.0  0.64557  0.82153  0.58771  1.0000
  C   C99       1.0  0.71502  0.82014  0.54404  1.0000
  C   C100      1.0  0.81465  0.80951  0.54014  1.0000
  H   H43       1.0  0.92236  0.79195  0.57695  1.0000
  O  Te19      1.0  0.60887  0.81320  0.67211  1.0000
  O  Te20      1.0  0.54633  0.83221  0.59100  1.0000
  H   H44       1.0  0.86792  0.80851  0.50621  1.0000
  Mg  Mg10      1.0  0.48182  0.82949  0.65870  1.0000
  C   C101      1.0  0.83675  0.17538  0.37779  1.0000
  C   C102      1.0  0.78786  0.18944  0.36309  1.0000
  C  Sn21      1.0  0.72120  0.19864  0.39643  1.0000
  C  Sn22      1.0  0.70334  0.19364  0.44537  1.0000
  C   C103      1.0  0.75270  0.17956  0.45972  1.0000
  C   C104      1.0  0.81921  0.17045  0.42606  1.0000
  H   H45       1.0  0.88828  0.16833  0.35175  1.0000
  O  Te21      1.0  0.67295  0.21266  0.38113  1.0000
  O  Te22      1.0  0.63713  0.20261  0.47945  1.0000
  H   H46       1.0  0.85712  0.15957  0.43746  1.0000
  Mg  Mg11      1.0  0.58938  0.22081  0.44106  1.0000
  C   C105      1.0  0.34586  0.82424  0.40587  1.0000
  C   C106      1.0  0.27735  0.82158  0.44901  1.0000
  C  Sn23      1.0  0.19814  0.80874  0.45273  1.0000
  C  Sn24      1.0  0.18754  0.79839  0.41246  1.0000
  C   C107      1.0  0.25654  0.80116  0.36947  1.0000
  C   C108      1.0  0.33550  0.81405  0.36614  1.0000
  H   H47       1.0  0.40700  0.83421  0.40330  1.0000
  O  Te23      1.0  0.13034  0.80625  0.49609  1.0000
  O  Te24      1.0  0.10911  0.78547  0.41519  1.0000
  H   H48       1.0  0.38859  0.81610  0.33275  1.0000
  Mg  Mg12      1.0  0.03584  0.78702  0.48207  1.0000
  C   C109      1.0  0.87494  0.67804  0.59355  1.0000
  C   C110      1.0  0.79652  0.67856  0.55145  1.0000
  C  Sn25      1.0  0.69799  0.68933  0.54785  1.0000
  C  Sn26      1.0  0.67786  0.69977  0.58719  1.0000
  C   C111      1.0  0.75690  0.69916  0.62914  1.0000
  C   C112      1.0  0.85518  0.68833  0.63236  1.0000
  H   H49       1.0  0.95103  0.66966  0.59604  1.0000
  O  Te25      1.0  0.62050  0.68969  0.50553  1.0000
  O  Te26      1.0  0.58012  0.71065  0.58455  1.0000
  H   H50       1.0  0.91594  0.68793  0.66496  1.0000
  Mg  Mg13      1.0  0.49980  0.70662  0.51927  1.0000
  C   C113      1.0  0.37867  0.32165  0.58125  1.0000
  C   C114      1.0  0.27329  0.32066  0.54878  1.0000
  C  Sn27      1.0  0.17045  0.31082  0.55848  1.0000
  C  Sn28      1.0  0.17341  0.30182  0.60151  1.0000
  C   C115      1.0  0.27923  0.30290  0.63378  1.0000
  C   C116      1.0  0.38165  0.31278  0.62371  1.0000
  H   H51       1.0  0.45788  0.32929  0.57347  1.0000
  O  Te27      1.0  0.06594  0.30997  0.52565  1.0000
  O  Te28      1.0  0.07190  0.29190  0.61211  1.0000
  H   H52       1.0  0.46318  0.31355  0.64887  1.0000
  Mg  Mg14      1.0  0.95079  0.29476  0.55612  1.0000
  C   C117      1.0  0.32436  0.69465  0.44453  1.0000
  C   C118      1.0  0.23612  0.68321  0.45636  1.0000
  C  Sn29      1.0  0.14594  0.67804  0.42136  1.0000
  C  Sn30      1.0  0.14434  0.68446  0.37367  1.0000
  C   C119      1.0  0.23309  0.69589  0.36220  1.0000
  C   C120      1.0  0.32288  0.70098  0.39750  1.0000
  H   H53       1.0  0.39389  0.69859  0.47184  1.0000
  O  Te29      1.0  0.05843  0.66660  0.43379  1.0000
  O  Te30      1.0  0.05528  0.67949  0.33799  1.0000
  H   H54       1.0  0.39125  0.70983  0.38833  1.0000
  Mg  Mg15      1.0  0.95559  0.66365  0.37256  1.0000
  C   C121      1.0  0.81709  0.30211  0.45389  1.0000
  C   C122      1.0  0.78617  0.31745  0.46078  1.0000
  C  Sn31      1.0  0.72602  0.32557  0.42310  1.0000
  C  Sn32      1.0  0.69637  0.31817  0.37771  1.0000
  C   C123      1.0  0.72761  0.30283  0.37119  1.0000
  C   C124      1.0  0.78782  0.29481  0.40915  1.0000
  H   H55       1.0  0.86361  0.29590  0.48327  1.0000
  O  Te31      1.0  0.69584  0.34089  0.43059  1.0000
  O  Te32      1.0  0.63623  0.32602  0.33943  1.0000
  H   H56       1.0  0.81167  0.28293  0.40381  1.0000
  Mg  Mg16      1.0  0.61428  0.34674  0.36735  1.0000
  C   C125      1.0  0.74993  0.85654  0.55806  1.0000
  C   C126      1.0  0.72143  0.84662  0.51891  1.0000
  C  Sn33      1.0  0.68616  0.85235  0.47296  1.0000
  C  Sn34      1.0  0.67941  0.86832  0.46619  1.0000
  C   C127      1.0  0.70820  0.87815  0.50558  1.0000
  C   C128      1.0  0.74334  0.87229  0.55141  1.0000
  H   H57       1.0  0.77719  0.85201  0.59352  1.0000
  O  Te33      1.0  0.65796  0.84228  0.43424  1.0000
  O  Te34      1.0  0.64447  0.87435  0.42064  1.0000
  H   H58       1.0  0.76548  0.87998  0.58171  1.0000
  Mg  Mg17      1.0  0.61497  0.85600  0.37912  1.0000
  C   C129      1.0  0.30270  0.13603  0.43941  1.0000
  C   C130      1.0  0.28254  0.12576  0.47752  1.0000
  C  Sn35      1.0  0.25608  0.13107  0.52497  1.0000
  C  Sn36      1.0  0.24972  0.14696  0.53434  1.0000
  C   C131      1.0  0.26995  0.15714  0.49596  1.0000
  C   C132      1.0  0.29640  0.15171  0.44862  1.0000
  H   H59       1.0  0.32310  0.13183  0.40277  1.0000
  O  Te35      1.0  0.23623  0.12065  0.56262  1.0000
  O  Te36      1.0  0.22339  0.15258  0.58142  1.0000
  H   H60       1.0  0.31192  0.15966  0.41912  1.0000
  Mg  Mg18      1.0  0.20336  0.13386  0.62061  1.0000
  C   C133      1.0  0.20220  0.85664  0.45973  1.0000
  C   C134      1.0  0.25762  0.84633  0.49249  1.0000
  C  Sn37      1.0  0.31750  0.85155  0.53580  1.0000
  C  Sn38      1.0  0.32179  0.86738  0.54642  1.0000
  C   C135      1.0  0.26598  0.87760  0.51343  1.0000
  C   C136      1.0  0.20634  0.87226  0.47019  1.0000
  H   H61       1.0  0.15599  0.85251  0.42628  1.0000
  O  Te37      1.0  0.37244  0.84109  0.56812  1.0000
  O  Te38      1.0  0.38099  0.87290  0.58945  1.0000
  H   H62       1.0  0.16336  0.88025  0.44485  1.0000
  Mg  Mg19      1.0  0.44219  0.85416  0.62198  1.0000
  C   C137      1.0  0.79866  0.14199  0.54009  1.0000
  C   C138      1.0  0.74892  0.15274  0.50755  1.0000
  C  Sn39      1.0  0.67604  0.14808  0.46651  1.0000
  C  Sn40      1.0  0.65265  0.13235  0.45800  1.0000
  C   C139      1.0  0.70275  0.12168  0.49080  1.0000
  C   C140      1.0  0.77559  0.12647  0.53174  1.0000
  H   H63       1.0  0.85496  0.14569  0.57178  1.0000
  O  Te39      1.0  0.62711  0.15898  0.43436  1.0000
  O  Te40      1.0  0.58009  0.12738  0.41729  1.0000
  H   H64       1.0  0.81401  0.11814  0.55695  1.0000
  Mg  Mg20      1.0  0.53396  0.14658  0.38403  1.0000
  C   C141      1.0  0.22254  0.35629  0.56030  1.0000
  C   C142      1.0  0.20338  0.34694  0.51897  1.0000
  C  Sn41      1.0  0.19612  0.35324  0.47206  1.0000
  C  Sn42      1.0  0.20833  0.36922  0.46654  1.0000
  C   C143      1.0  0.22757  0.37848  0.50811  1.0000
  C   C144      1.0  0.23465  0.37205  0.55488  1.0000
  H   H65       1.0  0.22809  0.35132  0.59649  1.0000
  O  Te41      1.0  0.17689  0.34373  0.43116  1.0000
  O  Te42      1.0  0.20149  0.37582  0.42008  1.0000
  H   H66       1.0  0.24957  0.37930  0.58687  1.0000
  Mg  Mg21      1.0  0.17421  0.35811  0.37553  1.0000
  C   C145      1.0  0.84586  0.63422  0.45407  1.0000
  C   C146      1.0  0.81499  0.62456  0.49277  1.0000
  C  Sn43      1.0  0.76297  0.63047  0.53616  1.0000
  C  Sn44      1.0  0.74155  0.64636  0.54076  1.0000
  C   C147      1.0  0.77268  0.65593  0.50182  1.0000
  C   C148      1.0  0.82472  0.64989  0.45858  1.0000
  H   H67       1.0  0.88606  0.62955  0.42061  1.0000
  O  Te43      1.0  0.73272  0.62066  0.57447  1.0000
  O  Te44      1.0  0.68963  0.65257  0.58370  1.0000
  H   H68       1.0  0.84853  0.65738  0.42861  1.0000
  Mg  Mg22      1.0  0.66409  0.63455  0.62569  1.0000
  C   C149      1.0  0.82909  0.35669  0.46050  1.0000
  C   C150      1.0  0.79379  0.34694  0.49841  1.0000
  C  Sn45      1.0  0.74105  0.35280  0.54172  1.0000
  C  Sn46      1.0  0.72339  0.36874  0.54707  1.0000
  C   C151      1.0  0.75892  0.37840  0.50892  1.0000
  C   C152      1.0  0.81166  0.37240  0.46574  1.0000
  H   H69       1.0  0.86982  0.35205  0.42709  1.0000
  O  Te45      1.0  0.70636  0.34290  0.57924  1.0000
  O  Te46      1.0  0.67084  0.37490  0.58996  1.0000
  H   H70       1.0  0.83889  0.37996  0.43638  1.0000
  Mg  Mg23      1.0  0.63861  0.35676  0.63071  1.0000
  C   C153      1.0  0.25451  0.63498  0.44766  1.0000
  C   C154      1.0  0.21282  0.62482  0.48343  1.0000
  C  Sn47      1.0  0.15918  0.63025  0.52716  1.0000
  C  Sn48      1.0  0.14715  0.64616  0.53512  1.0000
  C   C155      1.0  0.18907  0.65624  0.49910  1.0000
  C   C156      1.0  0.24264  0.65068  0.45548  1.0000
  H   H71       1.0  0.29589  0.63069  0.41390  1.0000
  O  Te47      1.0  0.11806  0.61993  0.56252  1.0000
  O  Te48      1.0  0.09385  0.65189  0.57849  1.0000
  H   H72       1.0  0.27483  0.65855  0.42778  1.0000
  Mg  Mg24      1.0  0.05185  0.63329  0.61565  1.0000
  C   C157      1.0  0.83680  0.77068  0.76565  1.0000
  C   C158      1.0  0.76361  0.78381  0.75844  1.0000
  C  Sn49      1.0  0.68731  0.78961  0.79634  1.0000
  C  Sn50      1.0  0.68446  0.78210  0.84226  1.0000
  C   C159      1.0  0.75810  0.76897  0.84912  1.0000
  C   C160      1.0  0.83408  0.76326  0.81094  1.0000
  H   H73       1.0  0.89564  0.76626  0.73613  1.0000
  O  Te49      1.0  0.61475  0.80275  0.78850  1.0000
  O  Te50      1.0  0.60908  0.78765  0.88077  1.0000
  H   H74       1.0  0.89079  0.75309  0.81655  1.0000
  Mg  Mg25      1.0  0.52706  0.80591  0.85222  1.0000
  C   C161      1.0  0.34304  0.21406  0.83094  1.0000
  C   C162      1.0  0.27901  0.22788  0.83785  1.0000
  C  Sn51      1.0  0.19418  0.23328  0.80177  1.0000
  C  Sn52      1.0  0.17324  0.22465  0.75799  1.0000
  C   C163      1.0  0.23769  0.21083  0.75144  1.0000
  C   C164      1.0  0.32240  0.20554  0.78778  1.0000
  H   H75       1.0  0.40852  0.20997  0.85906  1.0000
  O  Te51      1.0  0.13104  0.24711  0.80927  1.0000
  O  Te52      1.0  0.08895  0.22977  0.72134  1.0000
  H   H76       1.0  0.37189  0.19484  0.78243  1.0000
  Mg  Mg26      1.0  0.02547  0.24931  0.74858  1.0000
  C   C165      1.0  0.16550  0.77285  0.23344  1.0000
  C   C166      1.0  0.24415  0.78558  0.24213  1.0000
  C  Sn53      1.0  0.32672  0.79080  0.20554  1.0000
  C  Sn54      1.0  0.33037  0.78311  0.15943  1.0000
  C   C167      1.0  0.25123  0.77039  0.15108  1.0000
  C   C168      1.0  0.16901  0.76527  0.18796  1.0000
  H   H77       1.0  0.10182  0.76889  0.26196  1.0000
  O  Te53      1.0  0.40469  0.80353  0.21484  1.0000
  O  Te54      1.0  0.41196  0.78808  0.12220  1.0000
  H   H78       1.0  0.10806  0.75542  0.18121  1.0000
  Mg  Mg27      1.0  0.49984  0.80595  0.15252  1.0000
  C   C169      1.0  0.63453  0.21210  0.19381  1.0000
  C   C170      1.0  0.71520  0.21174  0.23533  1.0000
  C  Sn55      1.0  0.81328  0.22258  0.24164  1.0000
  C  Sn56      1.0  0.83066  0.23397  0.20566  1.0000
  C   C171      1.0  0.74939  0.23423  0.16427  1.0000
  C   C172      1.0  0.65158  0.22333  0.15832  1.0000
  H   H79       1.0  0.55881  0.20366  0.18922  1.0000
  O  Te55      1.0  0.89304  0.22206  0.28333  1.0000
  O  Te56      1.0  0.92789  0.24495  0.21105  1.0000
  H   H80       1.0  0.58908  0.22361  0.12619  1.0000
  Mg  Mg28      1.0  0.01198  0.23950  0.27418  1.0000
  C   C173      1.0  0.15731  0.28284  0.82651  1.0000
  C   C174      1.0  0.22769  0.26952  0.83436  1.0000
  C  Sn57      1.0  0.31479  0.26434  0.79904  1.0000
  C  Sn58      1.0  0.33158  0.27267  0.75511  1.0000
  C   C175      1.0  0.26078  0.28598  0.74763  1.0000
  C   C176      1.0  0.17384  0.29106  0.78320  1.0000
  H   H81       1.0  0.09009  0.28678  0.85405  1.0000
  O  Te57      1.0  0.38430  0.25101  0.80746  1.0000
  O  Te58      1.0  0.41803  0.26775  0.71921  1.0000
  H   H82       1.0  0.11943  0.30138  0.77713  1.0000
  Mg  Mg29      1.0  0.49057  0.24892  0.74757  1.0000
  C   C177      1.0  0.80381  0.71257  0.84026  1.0000
  C   C178      1.0  0.76034  0.72760  0.84246  1.0000
  C  Sn59      1.0  0.70292  0.73423  0.80121  1.0000
  C  Sn60      1.0  0.68884  0.72563  0.75701  1.0000
  C   C179      1.0  0.73256  0.71060  0.75520  1.0000
  C   C180      1.0  0.78992  0.70408  0.79668  1.0000
  H   H83       1.0  0.84813  0.70752  0.87236  1.0000
  O  Te59      1.0  0.66007  0.74926  0.80404  1.0000
  O  Te60      1.0  0.63176  0.73198  0.71525  1.0000
  H   H84       1.0  0.82349  0.69244  0.79498  1.0000
  Mg  Mg30      1.0  0.58864  0.75287  0.73731  1.0000
  C   C181      1.0  0.68076  0.27044  0.24263  1.0000
  C   C182      1.0  0.76619  0.28247  0.25250  1.0000
  C  Sn61      1.0  0.84718  0.28786  0.21567  1.0000
  C  Sn62      1.0  0.84231  0.28106  0.16811  1.0000
  C   C183      1.0  0.75645  0.26904  0.15860  1.0000
  C   C184      1.0  0.67586  0.26373  0.19573  1.0000
  H   H85       1.0  0.61836  0.26633  0.27135  1.0000
  O  Te61      1.0  0.93199  0.29988  0.22615  1.0000
  O  Te62      1.0  0.92215  0.28623  0.13062  1.0000
  H   H86       1.0  0.60967  0.25442  0.18807  1.0000
  Mg  Mg31      1.0  0.02150  0.30291  0.16290  1.0000
  C   C185      1.0  0.30607  0.73542  0.22096  1.0000
  C   C186      1.0  0.27413  0.73293  0.17145  1.0000
  C  Sn63      1.0  0.21501  0.71931  0.15645  1.0000
  C  Sn64      1.0  0.18743  0.70800  0.19176  1.0000
  C   C187      1.0  0.21967  0.71061  0.24121  1.0000
  C   C188      1.0  0.27885  0.72427  0.25582  1.0000
  H   H87       1.0  0.35179  0.74600  0.23227  1.0000
  O  Te63      1.0  0.18380  0.71700  0.10683  1.0000
  O  Te64      1.0  0.12835  0.69429  0.17778  1.0000
  H   H88       1.0  0.30349  0.72621  0.29416  1.0000
  Mg  Mg32      1.0  0.10433  0.69646  0.10584  1.0000
  C   C189      1.0  0.33099  0.21573  0.16223  1.0000
  C   C190      1.0  0.26233  0.22921  0.15508  1.0000
  C  Sn65      1.0  0.19108  0.23559  0.19346  1.0000
  C  Sn66      1.0  0.18874  0.22832  0.23981  1.0000
  C   C191      1.0  0.25783  0.21485  0.24660  1.0000
  C   C192      1.0  0.32878  0.20856  0.20795  1.0000
  H   H89       1.0  0.38594  0.21087  0.13234  1.0000
  O  Te65      1.0  0.12299  0.24905  0.18568  1.0000
  O  Te66      1.0  0.11836  0.23445  0.27880  1.0000
  H   H90       1.0  0.38200  0.19813  0.21351  1.0000
  Mg  Mg33      1.0  0.04125  0.25299  0.25013  1.0000
  C   C193      1.0  0.66429  0.78974  0.19592  1.0000
  C   C194      1.0  0.72580  0.78716  0.24106  1.0000
  C  Sn67      1.0  0.80840  0.77474  0.24667  1.0000
  C  Sn68      1.0  0.82964  0.76474  0.20628  1.0000
  C   C195      1.0  0.76772  0.76742  0.16126  1.0000
  C   C196      1.0  0.68523  0.77988  0.15605  1.0000
  H   H91       1.0  0.60052  0.79938  0.19187  1.0000
  O  Te67      1.0  0.86904  0.77233  0.29203  1.0000
  O  Te68      1.0  0.91175  0.75225  0.21087  1.0000
  H   H92       1.0  0.63768  0.78188  0.12108  1.0000
  Mg  Mg34      1.0  0.97222  0.75374  0.28010  1.0000
  C   C197      1.0  0.66406  0.20772  0.81949  1.0000
  C   C198      1.0  0.71775  0.20969  0.77300  1.0000
  C  Sn69      1.0  0.79339  0.22250  0.76337  1.0000
  C  Sn70      1.0  0.81554  0.23352  0.80105  1.0000
  C   C199      1.0  0.76147  0.23144  0.84744  1.0000
  C   C200      1.0  0.68590  0.21858  0.85668  1.0000
  H   H93       1.0  0.60564  0.19777  0.82665  1.0000
  O  Te69      1.0  0.84626  0.22430  0.71671  1.0000
  O  Te70      1.0  0.89080  0.24643  0.79242  1.0000
  H   H94       1.0  0.64441  0.21706  0.89269  1.0000
  Mg  Mg35      1.0  0.94198  0.24380  0.72287  1.0000
  C   C201      1.0  0.15337  0.76947  0.76470  1.0000
  C   C202      1.0  0.22287  0.78283  0.75612  1.0000
  C  Sn71      1.0  0.31502  0.78802  0.79034  1.0000
  C  Sn72      1.0  0.33783  0.77965  0.83391  1.0000
  C   C203      1.0  0.26786  0.76629  0.84214  1.0000
  C   C204      1.0  0.17584  0.76120  0.80766  1.0000
  H   H95       1.0  0.08223  0.76553  0.73802  1.0000
  O  Te71      1.0  0.38356  0.80140  0.78120  1.0000
  O  Te72      1.0  0.42940  0.78458  0.86872  1.0000
  H   H96       1.0  0.12211  0.75085  0.81430  1.0000
  Mg  Mg36      1.0  0.49827  0.80348  0.83968  1.0000
  C   C205      1.0  0.86545  0.71494  0.20108  1.0000
  C   C206      1.0  0.78189  0.71468  0.24115  1.0000
  C  Sn73      1.0  0.66881  0.72333  0.24060  1.0000
  C  Sn74      1.0  0.63909  0.73238  0.19911  1.0000
  C   C207      1.0  0.72327  0.73255  0.15919  1.0000
  C   C208      1.0  0.83617  0.72386  0.16013  1.0000
  H   H97       1.0  0.95277  0.70821  0.20179  1.0000
  O  Te73      1.0  0.58642  0.72294  0.28095  1.0000
  O  Te74      1.0  0.52670  0.74113  0.19758  1.0000
  H   H98       1.0  0.90081  0.72406  0.12909  1.0000
  Mg  Mg37      1.0  0.44488  0.73683  0.26153  1.0000
  C   C209      1.0  0.16975  0.29173  0.18342  1.0000
  C   C210      1.0  0.22368  0.28998  0.23035  1.0000
  C  Sn75      1.0  0.30530  0.27773  0.24022  1.0000
  C  Sn76      1.0  0.33329  0.26706  0.20232  1.0000
  C   C211      1.0  0.27892  0.26892  0.15548  1.0000
  C   C212      1.0  0.19734  0.28121  0.14601  1.0000
  H   H99       1.0  0.10668  0.30125  0.17608  1.0000
  O  Te75      1.0  0.35834  0.27615  0.28732  1.0000
  O  Te76      1.0  0.41459  0.25471  0.21118  1.0000
  H   H100      1.0  0.15566  0.28257  0.10966  1.0000
  Mg  Mg38      1.0  0.46347  0.25744  0.28133  1.0000
  C   C213      1.0  0.35896  0.72608  0.77034  1.0000
  C   C214      1.0  0.26453  0.71570  0.75426  1.0000
  C  Sn77      1.0  0.15020  0.71398  0.78060  1.0000
  C  Sn78      1.0  0.13029  0.72282  0.82381  1.0000
  C   C215      1.0  0.22532  0.73317  0.83957  1.0000
  C   C216      1.0  0.33939  0.73481  0.81295  1.0000
  H   H101      1.0  0.44720  0.72735  0.74973  1.0000
  O  Te77      1.0  0.05687  0.70356  0.76403  1.0000
  O  Te78      1.0  0.01689  0.72133  0.85082  1.0000
  H   H102      1.0  0.41245  0.74284  0.82538  1.0000
  Mg  Mg39      1.0  0.91836  0.70561  0.81343  1.0000
  C   C217      1.0  0.66552  0.26530  0.78724  1.0000
  C   C218      1.0  0.72870  0.26610  0.83288  1.0000
  C  Sn79      1.0  0.80791  0.27854  0.84477  1.0000
  C  Sn80      1.0  0.82394  0.29039  0.81027  1.0000
  C   C219      1.0  0.76024  0.28949  0.76472  1.0000
  C   C220      1.0  0.68124  0.27698  0.75319  1.0000
  H   H103      1.0  0.60433  0.25563  0.77832  1.0000
  O  Te79      1.0  0.87036  0.27915  0.89053  1.0000
  O  Te80      1.0  0.90250  0.30295  0.82121  1.0000
  H   H104      1.0  0.63227  0.27638  0.71786  1.0000
  Mg  Mg40      1.0  0.96732  0.29861  0.88838  1.0000
  C   C221      1.0  0.65458  0.92794  0.54292  1.0000
  C   C222      1.0  0.68878  0.91976  0.50068  1.0000
  C  Sn81      1.0  0.70354  0.92721  0.45593  1.0000
  C  Sn82      1.0  0.68366  0.94315  0.45352  1.0000
  C   C223      1.0  0.64956  0.95124  0.49599  1.0000
  C   C224      1.0  0.63500  0.94366  0.54059  1.0000
  H   H105      1.0  0.64339  0.92208  0.57743  1.0000
  O  Te81      1.0  0.73770  0.91887  0.41408  1.0000
  O  Te82      1.0  0.69782  0.95089  0.40927  1.0000
  H   H106      1.0  0.60860  0.95000  0.57329  1.0000
  Mg  Mg41      1.0  0.74543  0.93453  0.36230  1.0000
  C   C225      1.0  0.28561  0.06288  0.46200  1.0000
  C   C226      1.0  0.34949  0.05339  0.49517  1.0000
  C  Sn83      1.0  0.38161  0.05868  0.54239  1.0000
  C  Sn84      1.0  0.34900  0.07375  0.55656  1.0000
  C   C227      1.0  0.28500  0.08316  0.52311  1.0000
  C   C228      1.0  0.25336  0.07775  0.47595  1.0000
  H   H107      1.0  0.26106  0.05869  0.42552  1.0000
  O  Te83      1.0  0.44548  0.04905  0.57506  1.0000
  O  Te84      1.0  0.37991  0.07933  0.60352  1.0000
  H   H108      1.0  0.20382  0.08509  0.45029  1.0000
  Mg  Mg42      1.0  0.46707  0.06187  0.63496  1.0000
  C   C229      1.0  0.31947  0.93067  0.43460  1.0000
  C   C230      1.0  0.29436  0.91985  0.47064  1.0000
  C  Sn85      1.0  0.29217  0.92413  0.52027  1.0000
  C  Sn86      1.0  0.31556  0.93952  0.53396  1.0000
  C   C231      1.0  0.34049  0.95026  0.49762  1.0000
  C   C232      1.0  0.34250  0.94586  0.44807  1.0000
  H   H109      1.0  0.32095  0.92726  0.39625  1.0000
  O  Te85      1.0  0.26698  0.91317  0.55581  1.0000
  O  Te86      1.0  0.31389  0.94411  0.58330  1.0000
  H   H110      1.0  0.36186  0.95423  0.42017  1.0000
  Mg  Mg43      1.0  0.27507  0.92499  0.61823  1.0000
  C   C233      1.0  0.62574  0.06481  0.45426  1.0000
  C   C234      1.0  0.64489  0.05261  0.48606  1.0000
  C  Sn87      1.0  0.70609  0.05492  0.53159  1.0000
  C  Sn88      1.0  0.74878  0.06973  0.54545  1.0000
  C   C235      1.0  0.72909  0.08186  0.51339  1.0000
  C   C236      1.0  0.66777  0.07942  0.46791  1.0000
  H   H111      1.0  0.57824  0.06293  0.41908  1.0000
  O  Te87      1.0  0.72449  0.04260  0.56291  1.0000
  O  Te88      1.0  0.81018  0.07235  0.59075  1.0000
  H   H112      1.0  0.65289  0.08887  0.44331  1.0000
  Mg  Mg44      1.0  0.81313  0.05192  0.62076  1.0000
  C   C237      1.0  0.20432  0.44049  0.44495  1.0000
  C   C238      1.0  0.15141  0.44838  0.48480  1.0000
  C  Sn89      1.0  0.14265  0.44146  0.53070  1.0000
  C  Sn90      1.0  0.18781  0.42636  0.53670  1.0000
  C   C239      1.0  0.24066  0.41856  0.49661  1.0000
  C   C240      1.0  0.24892  0.42560  0.45084  1.0000
  H   H113      1.0  0.21078  0.44593  0.40954  1.0000
  O  Te89      1.0  0.08949  0.44950  0.57012  1.0000
  O  Te90      1.0  0.18026  0.41917  0.58217  1.0000
  H   H114      1.0  0.28997  0.41949  0.42000  1.0000
  Mg  Mg45      1.0  0.10003  0.43482  0.62482  1.0000
  C   C241      1.0  0.77345  0.56689  0.43700  1.0000
  C   C242      1.0  0.77393  0.57862  0.47213  1.0000
  C  Sn91      1.0  0.82277  0.57609  0.51944  1.0000
  C  Sn92      1.0  0.87202  0.56155  0.53169  1.0000
  C   C243      1.0  0.87119  0.54991  0.49627  1.0000
  C   C244      1.0  0.82204  0.55255  0.44905  1.0000
  H   H115      1.0  0.73549  0.56894  0.40045  1.0000
  O  Te91      1.0  0.82248  0.58793  0.55410  1.0000
  O  Te92      1.0  0.92145  0.55872  0.57870  1.0000
  H   H116      1.0  0.82176  0.54348  0.42184  1.0000
  Mg  Mg46      1.0  0.90012  0.57849  0.61323  1.0000
  C   C245      1.0  0.80693  0.42879  0.52941  1.0000
  C   C246      1.0  0.78481  0.42007  0.48684  1.0000
  C  Sn93      1.0  0.80777  0.42624  0.44055  1.0000
  C  Sn94      1.0  0.85375  0.44141  0.43694  1.0000
  C   C247      1.0  0.87566  0.45004  0.47974  1.0000
  C   C248      1.0  0.85233  0.44375  0.52587  1.0000
  H   H117      1.0  0.78895  0.42393  0.56510  1.0000
  O  Te93      1.0  0.78512  0.41738  0.39840  1.0000
  O  Te94      1.0  0.87754  0.44786  0.39114  1.0000
  H   H118      1.0  0.86954  0.45050  0.55883  1.0000
  Mg  Mg47      1.0  0.83195  0.43123  0.34434  1.0000
  C   C249      1.0  0.14325  0.57289  0.46340  1.0000
  C   C250      1.0  0.18871  0.58057  0.50542  1.0000
  C  Sn95      1.0  0.21762  0.57253  0.54820  1.0000
  C  Sn96      1.0  0.20063  0.55651  0.54881  1.0000
  C   C251      1.0  0.15518  0.54893  0.50656  1.0000
  C   C252      1.0  0.12652  0.55708  0.46395  1.0000
  H   H119      1.0  0.12113  0.57919  0.43042  1.0000
  O  Te95      1.0  0.26290  0.58039  0.58987  1.0000
  O  Te96      1.0  0.22882  0.54820  0.59106  1.0000
  H   H120      1.0  0.09140  0.55113  0.43141  1.0000
  Mg  Mg48      1.0  0.28796  0.56403  0.63859  1.0000
