data_image0
_chemical_formula_structural       H96C160S16N16C2Sn2C2HTe2HMgC2Sn2C2HTe2HMgC2Sn2C2HTe2HMgC2Sn2C2HTe2HMgC2Sn2C2HTe2HMgC2Sn2C2HTe2HMgC2Sn2C2HTe2HMgC2Sn2C2HTe2HMgC2Sn2C2HTe2HMgC2Sn2C2HTe2HMgC2Sn2C2HTe2HMgC2Sn2C2HTe2HMgC2Sn2C2HTe2HMgC2Sn2C2HTe2HMgC2Sn2C2HTe2HMgC2Sn2C2HTe2HMgC2Sn2C2HTe2HMgC2Sn2C2HTe2HMgC2Sn2C2HTe2HMgC2Sn2C2HTe2HMg
_chemical_formula_sum              "H136 C240 S16 N16 Sn40 Te40 Mg20"
_cell_length_a       48.5194
_cell_length_b       43.9206
_cell_length_c       8.62471
_cell_angle_alpha    116.479
_cell_angle_beta     93.705
_cell_angle_gamma    89.877

_symmetry_space_group_name_H-M    'P1'
_space_group_IT_number       1

loop_
  _space_group_symop_operation_xyz
  'x, y, z'

loop_
  _atom_site_type_symbol
  _atom_site_label
  _atom_site_symmetry_multiplicity
  _atom_site_fract_x
  _atom_site_fract_y
  _atom_site_fract_z
  _atom_site_occupancy
  H   H1        1.0  0.07225  0.58639  0.45119  1.0000
  H   H2        1.0  0.06330  0.41639  0.08093  1.0000
  H   H3        1.0  0.43928  0.08060  0.34215  1.0000
  H   H4        1.0  0.56403  0.91750  0.17645  1.0000
  H   H5        1.0  0.10674  0.62510  0.42652  1.0000
  H   H6        1.0  0.09853  0.37463  0.07120  1.0000
  H   H7        1.0  0.40198  0.12042  0.36058  1.0000
  H   H8        1.0  0.60151  0.87926  0.17013  1.0000
  H   H9        1.0  0.14838  0.53881  0.06331  1.0000
  H   H10       1.0  0.15919  0.45609  0.32124  1.0000
  H   H11       1.0  0.34280  0.03692  0.15166  1.0000
  H   H12       1.0  0.66085  0.96165  0.32116  1.0000
  H   H13       1.0  0.13824  0.68772  0.18260  1.0000
  H   H14       1.0  0.86055  0.30926  0.25221  1.0000
  H   H15       1.0  0.85472  0.67322  0.13784  1.0000
  H   H16       1.0  0.13821  0.30685  0.23698  1.0000
  H   H17       1.0  0.63785  0.19165  0.24150  1.0000
  H   H18       1.0  0.35919  0.82343  0.38092  1.0000
  H   H19       1.0  0.35859  0.18197  0.19240  1.0000
  H   H20       1.0  0.17374  0.72621  0.16606  1.0000
  H   H21       1.0  0.82515  0.26977  0.26117  1.0000
  H   H22       1.0  0.81857  0.71098  0.11156  1.0000
  H   H23       1.0  0.17315  0.26853  0.26791  1.0000
  H   H24       1.0  0.67200  0.23398  0.24724  1.0000
  H   H25       1.0  0.32289  0.78446  0.38944  1.0000
  H   H26       1.0  0.32289  0.22040  0.16791  1.0000
  H   H27       1.0  0.23636  0.67783  0.34810  1.0000
  H   H28       1.0  0.76125  0.33379  0.21260  1.0000
  H   H29       1.0  0.76387  0.67536  0.37435  1.0000
  H   H30       1.0  0.23563  0.32025  0.13297  1.0000
  H   H31       1.0  0.73791  0.17354  0.30887  1.0000
  H   H32       1.0  0.26494  0.82062  0.11446  1.0000
  H   H33       1.0  0.26500  0.17803  0.38277  1.0000
  H   H34       1.0  0.20106  0.63803  0.35274  1.0000
  H   H35       1.0  0.79670  0.37275  0.20143  1.0000
  H   H36       1.0  0.79900  0.63612  0.38728  1.0000
  H   H37       1.0  0.20102  0.35916  0.11021  1.0000
  H   H38       1.0  0.70378  0.13230  0.30897  1.0000
  H   H39       1.0  0.30079  0.86023  0.11223  1.0000
  H   H40       1.0  0.30011  0.13878  0.39844  1.0000
  H   H41       1.0  0.73594  0.28955  0.11567  1.0000
  H   H42       1.0  0.73179  0.69138  0.22946  1.0000
  H   H43       1.0  0.26318  0.30355  0.27340  1.0000
  H   H44       1.0  0.76163  0.21759  0.40654  1.0000
  H   H45       1.0  0.23504  0.19035  0.21266  1.0000
  H   H46       1.0  0.76561  0.80154  0.27374  1.0000
  H   H47       1.0  0.79643  0.25514  0.38548  1.0000
  H   H48       1.0  0.79879  0.75848  0.26231  1.0000
  H   H49       1.0  0.19993  0.22776  0.18236  1.0000
  H   H50       1.0  0.70122  0.25126  0.13247  1.0000
  H   H51       1.0  0.29831  0.26600  0.30196  1.0000
  H   H52       1.0  0.69858  0.73450  0.24101  1.0000
  H   H53       1.0  0.16845  0.59484  0.15505  1.0000
  H   H54       1.0  0.83414  0.40995  0.37612  1.0000
  H   H55       1.0  0.82568  0.59279  0.26807  1.0000
  H   H56       1.0  0.17236  0.40067  0.26786  1.0000
  H   H57       1.0  0.67045  0.09254  0.14457  1.0000
  H   H58       1.0  0.32872  0.90715  0.28940  1.0000
  H   H59       1.0  0.32640  0.09412  0.24429  1.0000
  H   H60       1.0  0.67706  0.90397  0.25452  1.0000
  H   H61       1.0  0.11234  0.50017  0.07276  1.0000
  H   H62       1.0  0.12463  0.49744  0.32945  1.0000
  H   H63       1.0  0.38016  0.99665  0.11016  1.0000
  H   H64       1.0  0.62351  0.00084  0.34096  1.0000
  H   H65       1.0  0.93694  0.55574  0.63844  1.0000
  H   H66       1.0  0.43598  0.94134  0.88074  1.0000
  H   H67       1.0  0.43300  0.06162  0.59852  1.0000
  H   H68       1.0  0.90259  0.59687  0.62791  1.0000
  H   H69       1.0  0.39918  0.90212  0.87754  1.0000
  H   H70       1.0  0.39814  0.10466  0.63259  1.0000
  H   H71       1.0  0.85070  0.57125  0.93990  1.0000
  H   H72       1.0  0.34154  0.94542  0.63806  1.0000
  H   H73       1.0  0.35211  0.07014  0.93552  1.0000
  H   H74       1.0  0.86456  0.31077  0.84100  1.0000
  H   H75       1.0  0.86293  0.69080  0.73051  1.0000
  H   H76       1.0  0.82805  0.27450  0.86707  1.0000
  H   H77       1.0  0.82743  0.73357  0.76190  1.0000
  H   H78       1.0  0.76799  0.31742  0.63629  1.0000
  H   H79       1.0  0.76433  0.66264  0.73868  1.0000
  H   H80       1.0  0.80427  0.35303  0.61018  1.0000
  H   H81       1.0  0.79980  0.62105  0.71671  1.0000
  H   H82       1.0  0.25956  0.69354  0.68063  1.0000
  H   H83       1.0  0.23411  0.81040  0.79469  1.0000
  H   H84       1.0  0.19937  0.77152  0.80756  1.0000
  H   H85       1.0  0.29434  0.73234  0.66567  1.0000
  H   H86       1.0  0.16369  0.59609  0.64665  1.0000
  H   H87       1.0  0.83251  0.39532  0.75939  1.0000
  H   H88       1.0  0.83512  0.61130  0.85627  1.0000
  H   H89       1.0  0.17243  0.40447  0.74788  1.0000
  H   H90       1.0  0.67117  0.09846  0.75486  1.0000
  H   H91       1.0  0.32715  0.89682  0.66175  1.0000
  H   H92       1.0  0.33530  0.11676  0.89402  1.0000
  H   H93       1.0  0.66481  0.88386  0.64163  1.0000
  H   H94       1.0  0.88637  0.53460  0.97232  1.0000
  H   H95       1.0  0.37767  0.98495  0.64415  1.0000
  H   H96       1.0  0.38747  0.02868  0.91180  1.0000
  C   C1        1.0  0.48769  0.99640  0.19950  1.0000
  C   C2        1.0  0.51567  0.99607  0.19332  1.0000
  C   C3        1.0  0.98867  0.50302  0.31009  1.0000
  C   C4        1.0  0.01671  0.50285  0.30594  1.0000
  C   C5        1.0  0.08837  0.57583  0.36131  1.0000
  C   C6        1.0  0.08429  0.42517  0.13555  1.0000
  C   C7        1.0  0.41815  0.07079  0.29900  1.0000
  C   C8        1.0  0.58521  0.92759  0.20764  1.0000
  C   C9        1.0  0.10789  0.59769  0.35042  1.0000
  C   C10       1.0  0.10395  0.40165  0.12839  1.0000
  C   C11       1.0  0.39735  0.09336  0.31201  1.0000
  C   C12       1.0  0.60609  0.90573  0.20239  1.0000
  C   C13       1.0  0.12985  0.58475  0.24238  1.0000
  C   C14       1.0  0.13117  0.41236  0.19938  1.0000
  C   C15       1.0  0.36964  0.08188  0.26559  1.0000
  C   C16       1.0  0.63387  0.91717  0.23760  1.0000
  C   C17       1.0  0.13150  0.54921  0.14761  1.0000
  C   C18       1.0  0.13817  0.44727  0.26740  1.0000
  C   C19       1.0  0.36392  0.04667  0.19712  1.0000
  C   C20       1.0  0.63959  0.95180  0.28564  1.0000
  C   C21       1.0  0.11139  0.52736  0.15399  1.0000
  C   C22       1.0  0.11855  0.47075  0.27350  1.0000
  C   C23       1.0  0.38495  0.02381  0.17592  1.0000
  C   C24       1.0  0.61849  0.97404  0.29543  1.0000
  C   C25       1.0  0.08941  0.54006  0.26172  1.0000
  C   C26       1.0  0.09074  0.46059  0.21380  1.0000
  C   C27       1.0  0.41250  0.03542  0.23452  1.0000
  C   C28       1.0  0.59071  0.96216  0.24837  1.0000
  C   C29       1.0  0.15006  0.60704  0.22285  1.0000
  C   C30       1.0  0.85067  0.39700  0.29060  1.0000
  C   C31       1.0  0.84668  0.60314  0.27663  1.0000
  C   C32       1.0  0.15176  0.38917  0.21105  1.0000
  C   C33       1.0  0.65194  0.10426  0.21250  1.0000
  C   C34       1.0  0.34935  0.89619  0.26514  1.0000
  C   C35       1.0  0.34762  0.10492  0.27070  1.0000
  C   C36       1.0  0.65560  0.89452  0.24116  1.0000
  C   C37       1.0  0.15982  0.68579  0.21873  1.0000
  C   C38       1.0  0.83872  0.31448  0.24510  1.0000
  C   C39       1.0  0.83456  0.67369  0.18699  1.0000
  C   C40       1.0  0.15970  0.30964  0.21563  1.0000
  C   C41       1.0  0.65988  0.18784  0.25427  1.0000
  C   C42       1.0  0.33841  0.82264  0.32361  1.0000
  C   C43       1.0  0.33789  0.18121  0.23236  1.0000
  C   C44       1.0  0.17987  0.70755  0.21145  1.0000
  C   C45       1.0  0.81868  0.29252  0.25064  1.0000
  C   C46       1.0  0.81432  0.69510  0.17493  1.0000
  C   C47       1.0  0.17946  0.28801  0.23118  1.0000
  C   C48       1.0  0.67922  0.21142  0.25710  1.0000
  C   C49       1.0  0.31811  0.80060  0.32598  1.0000
  C   C50       1.0  0.31784  0.20291  0.22065  1.0000
  C   C51       1.0  0.20798  0.70527  0.25685  1.0000
  C   C52       1.0  0.79026  0.29869  0.23909  1.0000
  C   C53       1.0  0.78836  0.69626  0.24173  1.0000
  C   C54       1.0  0.20748  0.29157  0.20593  1.0000
  C   C55       1.0  0.70783  0.20690  0.27490  1.0000
  C   C56       1.0  0.29112  0.79966  0.25263  1.0000
  C   C57       1.0  0.29091  0.20188  0.27106  1.0000
  C   C58       1.0  0.21509  0.67942  0.30514  1.0000
  C   C59       1.0  0.78296  0.32821  0.22254  1.0000
  C   C60       1.0  0.78323  0.67399  0.31485  1.0000
  C   C61       1.0  0.21458  0.31789  0.16324  1.0000
  C   C62       1.0  0.71605  0.17771  0.29234  1.0000
  C   C63       1.0  0.28524  0.82210  0.17933  1.0000
  C   C64       1.0  0.28509  0.17808  0.33370  1.0000
  C   C65       1.0  0.19526  0.65684  0.30769  1.0000
  C   C66       1.0  0.80290  0.35066  0.21947  1.0000
  C   C67       1.0  0.80315  0.65184  0.32297  1.0000
  C   C68       1.0  0.19504  0.34006  0.15066  1.0000
  C   C69       1.0  0.69686  0.15390  0.28857  1.0000
  C   C70       1.0  0.30536  0.84460  0.17882  1.0000
  C   C71       1.0  0.30485  0.15579  0.34225  1.0000
  C   C72       1.0  0.16719  0.65977  0.26496  1.0000
  C   C73       1.0  0.83121  0.34417  0.23116  1.0000
  C   C74       1.0  0.82936  0.65158  0.26073  1.0000
  C   C75       1.0  0.16716  0.33661  0.17914  1.0000
  C   C76       1.0  0.66833  0.15833  0.26724  1.0000
  C   C77       1.0  0.33236  0.84528  0.25165  1.0000
  C   C78       1.0  0.33163  0.15672  0.28948  1.0000
  C   C79       1.0  0.74168  0.27435  0.18269  1.0000
  C   C80       1.0  0.73941  0.71560  0.24060  1.0000
  C   C81       1.0  0.25680  0.27854  0.25727  1.0000
  C   C82       1.0  0.75589  0.23254  0.33803  1.0000
  C   C83       1.0  0.24139  0.21530  0.22754  1.0000
  C   C84       1.0  0.75798  0.77732  0.26245  1.0000
  C   C85       1.0  0.77575  0.25404  0.32644  1.0000
  C   C86       1.0  0.77679  0.75287  0.25516  1.0000
  C   C87       1.0  0.22143  0.23662  0.21058  1.0000
  C   C88       1.0  0.72187  0.25253  0.19240  1.0000
  C   C89       1.0  0.27680  0.25719  0.27331  1.0000
  C   C90       1.0  0.72058  0.74010  0.24793  1.0000
  C   C91       1.0  0.76921  0.27553  0.24818  1.0000
  C   C92       1.0  0.76802  0.72133  0.24365  1.0000
  C   C93       1.0  0.22854  0.26883  0.22398  1.0000
  C   C94       1.0  0.72845  0.23097  0.27015  1.0000
  C   C95       1.0  0.26967  0.22487  0.25821  1.0000
  C   C96       1.0  0.72936  0.77156  0.25854  1.0000
  C   C97       1.0  0.43546  0.01285  0.22611  1.0000
  C   C98       1.0  0.56786  0.98254  0.23153  1.0000
  C   C99       1.0  0.56800  0.01304  0.22230  1.0000
  C   C100      1.0  0.43656  0.98301  0.24319  1.0000
  C   C101      1.0  0.93641  0.51725  0.28129  1.0000
  C   C102      1.0  0.06818  0.48471  0.24735  1.0000
  C   C103      1.0  0.06763  0.51791  0.27127  1.0000
  C   C104      1.0  0.93639  0.48542  0.27501  1.0000
  C   C105      1.0  0.48485  0.99393  0.69071  1.0000
  C   C106      1.0  0.51270  0.99207  0.67818  1.0000
  C   C107      1.0  0.98762  0.50624  0.85267  1.0000
  C   C108      1.0  0.01547  0.50607  0.84075  1.0000
  C   C109      1.0  0.91801  0.55918  0.70489  1.0000
  C   C110      1.0  0.41526  0.94237  0.82722  1.0000
  C   C111      1.0  0.41538  0.06341  0.67370  1.0000
  C   C112      1.0  0.89870  0.58199  0.69694  1.0000
  C   C113      1.0  0.39470  0.92032  0.82644  1.0000
  C   C114      1.0  0.39576  0.08754  0.69094  1.0000
  C   C115      1.0  0.87377  0.58621  0.77859  1.0000
  C   C116      1.0  0.36780  0.92057  0.75531  1.0000
  C   C117      1.0  0.37237  0.09026  0.78427  1.0000
  C   C118      1.0  0.86935  0.56742  0.87089  1.0000
  C   C119      1.0  0.36221  0.94489  0.69388  1.0000
  C   C120      1.0  0.36975  0.06809  0.86028  1.0000
  C   C121      1.0  0.88913  0.54570  0.88459  1.0000
  C   C122      1.0  0.38265  0.96721  0.69662  1.0000
  C   C123      1.0  0.38964  0.04439  0.84583  1.0000
  C   C124      1.0  0.91354  0.54018  0.79799  1.0000
  C   C125      1.0  0.40996  0.96603  0.75938  1.0000
  C   C126      1.0  0.41278  0.04092  0.74961  1.0000
  C   C127      1.0  0.14640  0.60903  0.72496  1.0000
  C   C128      1.0  0.85332  0.38508  0.73232  1.0000
  C   C129      1.0  0.85302  0.61052  0.78262  1.0000
  C   C130      1.0  0.15164  0.39281  0.69881  1.0000
  C   C131      1.0  0.64997  0.10775  0.76334  1.0000
  C   C132      1.0  0.34622  0.89586  0.73552  1.0000
  C   C133      1.0  0.35163  0.11574  0.80916  1.0000
  C   C134      1.0  0.64724  0.88486  0.71822  1.0000
  C   C135      1.0  0.84330  0.31188  0.79597  1.0000
  C   C136      1.0  0.84126  0.68522  0.73532  1.0000
  C   C137      1.0  0.82263  0.29153  0.80995  1.0000
  C   C138      1.0  0.82120  0.70892  0.75164  1.0000
  C   C139      1.0  0.79485  0.29333  0.75664  1.0000
  C   C140      1.0  0.79299  0.70156  0.75366  1.0000
  C   C141      1.0  0.78886  0.31652  0.68770  1.0000
  C   C142      1.0  0.78598  0.66948  0.74241  1.0000
  C   C143      1.0  0.80940  0.33688  0.67297  1.0000
  C   C144      1.0  0.80600  0.64588  0.72925  1.0000
  C   C145      1.0  0.83708  0.33528  0.72931  1.0000
  C   C146      1.0  0.83415  0.65342  0.72659  1.0000
  C   C147      1.0  0.25391  0.71933  0.70766  1.0000
  C   C148      1.0  0.23983  0.78461  0.76665  1.0000
  C   C149      1.0  0.22006  0.76253  0.77401  1.0000
  C   C150      1.0  0.27367  0.74140  0.69959  1.0000
  C   C151      1.0  0.22657  0.72931  0.74563  1.0000
  C   C152      1.0  0.26723  0.77481  0.73011  1.0000
  C   C153      1.0  0.43417  0.01603  0.73088  1.0000
  C   C154      1.0  0.56481  0.97884  0.70840  1.0000
  C   C155      1.0  0.56524  0.01042  0.70903  1.0000
  C   C156      1.0  0.43307  0.98550  0.74029  1.0000
  C   C157      1.0  0.93547  0.51859  0.81800  1.0000
  C   C158      1.0  0.06629  0.48754  0.76556  1.0000
  C   C159      1.0  0.06545  0.52096  0.79405  1.0000
  C   C160      1.0  0.93544  0.48592  0.80295  1.0000
  S   S1        1.0  0.46659  0.02676  0.17791  1.0000
  S   S2        1.0  0.53472  0.96229  0.19451  1.0000
  S   S3        1.0  0.53590  0.02692  0.17376  1.0000
  S   S4        1.0  0.46926  0.96376  0.21489  1.0000
  S   S5        1.0  0.96945  0.53831  0.33001  1.0000
  S   S6        1.0  0.03733  0.46894  0.29014  1.0000
  S   S7        1.0  0.03589  0.53847  0.32855  1.0000
  S   S8        1.0  0.96851  0.46993  0.30935  1.0000
  S   S9        1.0  0.46643  0.02775  0.68560  1.0000
  S   S10       1.0  0.53217  0.95773  0.66532  1.0000
  S   S11       1.0  0.53231  0.02327  0.65795  1.0000
  S   S12       1.0  0.46391  0.96223  0.69718  1.0000
  S   S13       1.0  0.96757  0.54123  0.88155  1.0000
  S   S14       1.0  0.03600  0.47143  0.81304  1.0000
  S   S15       1.0  0.03426  0.54185  0.86284  1.0000
  S   S16       1.0  0.96834  0.47271  0.85254  1.0000
  N   N1        1.0  0.14624  0.63919  0.27619  1.0000
  N   N2        1.0  0.85223  0.36429  0.21717  1.0000
  N   N3        1.0  0.85123  0.63162  0.27074  1.0000
  N   N4        1.0  0.14617  0.35742  0.16595  1.0000
  N   N5        1.0  0.64791  0.13651  0.27215  1.0000
  N   N6        1.0  0.35403  0.86601  0.24970  1.0000
  N   N7        1.0  0.35297  0.13547  0.29263  1.0000
  N   N8        1.0  0.64956  0.86568  0.23970  1.0000
  N   N9        1.0  0.14382  0.64152  0.78670  1.0000
  N   N10       1.0  0.85881  0.35519  0.71918  1.0000
  N   N11       1.0  0.85559  0.63108  0.71361  1.0000
  N   N12       1.0  0.14615  0.36146  0.66286  1.0000
  N   N13       1.0  0.64460  0.13702  0.76781  1.0000
  N   N14       1.0  0.34958  0.87357  0.79456  1.0000
  N   N15       1.0  0.35283  0.13649  0.74009  1.0000
  N   N16       1.0  0.64490  0.86414  0.78654  1.0000
  C   C161      1.0  0.41690  0.91918  0.21690  1.0000
  C   C162      1.0  0.41601  0.95311  0.24603  1.0000
  C  Sn1       1.0  0.39188  0.97128  0.29735  1.0000
  C  Sn2       1.0  0.36823  0.95512  0.31985  1.0000
  C   C163      1.0  0.36934  0.92117  0.29050  1.0000
  C   C164      1.0  0.39359  0.90322  0.23913  1.0000
  H   H97       1.0  0.43567  0.90530  0.17724  1.0000
  O  Te1       1.0  0.39134  0.00516  0.32585  1.0000
  O  Te2       1.0  0.34385  0.97269  0.37112  1.0000
  H   H98       1.0  0.39428  0.87696  0.21668  1.0000
  Mg  Mg1       1.0  0.35330  0.01842  0.39418  1.0000
  C   C165      1.0  0.87574  0.46250  0.41089  1.0000
  C   C166      1.0  0.86960  0.42849  0.29479  1.0000
  C  Sn3       1.0  0.88686  0.41069  0.16164  1.0000
  C  Sn4       1.0  0.91070  0.42733  0.14477  1.0000
  C   C167      1.0  0.91668  0.46136  0.26167  1.0000
  C   C168      1.0  0.89926  0.47893  0.39439  1.0000
  H   H99       1.0  0.86228  0.47609  0.51365  1.0000
  O  Te3       1.0  0.88041  0.37672  0.04672  1.0000
  O  Te4       1.0  0.92831  0.41014  0.01293  1.0000
  H   H100      1.0  0.90403  0.50526  0.48433  1.0000
  Mg  Mg2       1.0  0.92208  0.45163  0.88830  1.0000
  C   C169      1.0  0.16158  0.30733  0.72819  1.0000
  C   C170      1.0  0.16494  0.33472  0.68938  1.0000
  C  Sn5       1.0  0.19076  0.34234  0.65037  1.0000
  C  Sn6       1.0  0.21361  0.32211  0.65029  1.0000
  C   C171      1.0  0.21003  0.29475  0.68917  1.0000
  C   C172      1.0  0.18409  0.28736  0.72807  1.0000
  H   H101      1.0  0.14151  0.30160  0.75820  1.0000
  O  Te5       1.0  0.19376  0.36981  0.61195  1.0000
  O  Te6       1.0  0.23965  0.32916  0.61171  1.0000
  H   H102      1.0  0.18149  0.26614  0.75801  1.0000
  Mg  Mg3       1.0  0.23336  0.36927  0.56771  1.0000
  C   C173      1.0  0.33429  0.81338  0.79777  1.0000
  C   C174      1.0  0.33097  0.84169  0.76536  1.0000
  C  Sn7       1.0  0.30473  0.84990  0.72147  1.0000
  C  Sn8       1.0  0.28142  0.82936  0.70994  1.0000
  C   C175      1.0  0.28496  0.80111  0.74272  1.0000
  C   C176      1.0  0.31131  0.79311  0.78650  1.0000
  H   H103      1.0  0.35468  0.80720  0.83173  1.0000
  O  Te7       1.0  0.30178  0.87827  0.68944  1.0000
  O  Te8       1.0  0.25496  0.83700  0.66638  1.0000
  H   H104      1.0  0.31387  0.77120  0.81169  1.0000
  Mg  Mg4       1.0  0.26151  0.87827  0.63453  1.0000
  C   C177      1.0  0.86625  0.53871  0.23231  1.0000
  C   C178      1.0  0.86717  0.57370  0.28309  1.0000
  C  Sn9       1.0  0.89255  0.59124  0.31729  1.0000
  C  Sn10      1.0  0.91744  0.57335  0.30018  1.0000
  C   C179      1.0  0.91630  0.53835  0.24918  1.0000
  C   C180      1.0  0.89079  0.52105  0.21534  1.0000
  H   H105      1.0  0.84651  0.52532  0.20603  1.0000
  O  Te9       1.0  0.89309  0.62620  0.36796  1.0000
  O  Te10      1.0  0.94309  0.59026  0.33349  1.0000
  H   H106      1.0  0.89009  0.49395  0.17591  1.0000
  Mg  Mg5       1.0  0.93312  0.63797  0.39893  1.0000
  C   C181      1.0  0.15898  0.69497  0.71635  1.0000
  C   C182      1.0  0.16227  0.66761  0.75652  1.0000
  C  Sn11      1.0  0.18848  0.65997  0.80409  1.0000
  C  Sn12      1.0  0.21179  0.68015  0.81151  1.0000
  C   C183      1.0  0.20828  0.70748  0.77119  1.0000
  C   C184      1.0  0.18196  0.71490  0.72370  1.0000
  H   H107      1.0  0.13861  0.70072  0.67969  1.0000
  O  Te11      1.0  0.19140  0.63254  0.84375  1.0000
  O  Te12      1.0  0.23822  0.67309  0.85872  1.0000
  H   H108      1.0  0.17942  0.73610  0.69271  1.0000
  Mg  Mg6       1.0  0.23165  0.63302  0.90101  1.0000
  C   C185      1.0  0.73733  0.27617  0.75420  1.0000
  C   C186      1.0  0.76602  0.27378  0.76907  1.0000
  C  Sn13      1.0  0.77764  0.24475  0.77028  1.0000
  C  Sn14      1.0  0.76017  0.21764  0.75627  1.0000
  C   C187      1.0  0.73150  0.22027  0.74133  1.0000
  C   C188      1.0  0.72008  0.24944  0.74031  1.0000
  H   H109      1.0  0.72850  0.29873  0.75332  1.0000
  O  Te13      1.0  0.80634  0.24278  0.78530  1.0000
  O  Te14      1.0  0.77124  0.18833  0.75707  1.0000
  H   H110      1.0  0.69787  0.25128  0.72868  1.0000
  Mg  Mg7       1.0  0.81159  0.19762  0.78030  1.0000
  C   C189      1.0  0.33713  0.19714  0.74048  1.0000
  C   C190      1.0  0.33460  0.16829  0.76826  1.0000
  C  Sn15      1.0  0.30891  0.15830  0.79759  1.0000
  C  Sn16      1.0  0.28535  0.17760  0.79903  1.0000
  C   C191      1.0  0.28810  0.20640  0.77098  1.0000
  C   C192      1.0  0.31390  0.21618  0.74181  1.0000
  H   H111      1.0  0.35709  0.20469  0.71781  1.0000
  O  Te15      1.0  0.30675  0.12942  0.82518  1.0000
  O  Te16      1.0  0.25943  0.16818  0.82797  1.0000
  H   H112      1.0  0.31585  0.23850  0.72019  1.0000
  Mg  Mg8       1.0  0.26699  0.12685  0.85903  1.0000
  C   C193      1.0  0.60168  0.09242  0.33756  1.0000
  C   C194      1.0  0.62666  0.08513  0.25793  1.0000
  C  Sn17      1.0  0.63337  0.05144  0.15397  1.0000
  C  Sn18      1.0  0.61468  0.02461  0.12947  1.0000
  C   C195      1.0  0.58974  0.03218  0.20960  1.0000
  C   C196      1.0  0.58323  0.06598  0.31341  1.0000
  H   H113      1.0  0.59664  0.11858  0.41781  1.0000
  O  Te17      1.0  0.65842  0.04460  0.07542  1.0000
  O  Te18      1.0  0.61892  0.99071  0.02617  1.0000
  H   H114      1.0  0.56388  0.07162  0.37495  1.0000
  Mg  Mg9       1.0  0.66693  0.08182  0.94656  1.0000
  C   C197      1.0  0.09521  0.40652  0.63276  1.0000
  C   C198      1.0  0.12385  0.41166  0.66322  1.0000
  C  Sn19      1.0  0.13560  0.44444  0.72956  1.0000
  C  Sn20      1.0  0.11828  0.47256  0.76600  1.0000
  C   C199      1.0  0.08965  0.46716  0.73518  1.0000
  C   C200      1.0  0.07812  0.43425  0.66872  1.0000
  H   H115      1.0  0.08628  0.38106  0.58143  1.0000
  O  Te19      1.0  0.16426  0.44911  0.75918  1.0000
  O  Te20      1.0  0.12947  0.50560  0.83243  1.0000
  H   H116      1.0  0.05594  0.43029  0.64525  1.0000
  Mg  Mg10      1.0  0.16971  0.49898  0.85083  1.0000
  C   C201      1.0  0.10066  0.59913  0.89681  1.0000
  C   C202      1.0  0.12188  0.59115  0.78401  1.0000
  C  Sn21      1.0  0.12490  0.55765  0.65925  1.0000
  C  Sn22      1.0  0.10629  0.53170  0.64747  1.0000
  C   C203      1.0  0.08512  0.53995  0.76083  1.0000
  C   C204      1.0  0.08229  0.57355  0.88523  1.0000
  H   H117      1.0  0.09846  0.62513  0.99300  1.0000
  O  Te21      1.0  0.14622  0.55012  0.54763  1.0000
  O  Te22      1.0  0.10882  0.49801  0.52395  1.0000
  H   H118      1.0  0.06585  0.57972  0.97247  1.0000
  Mg  Mg11      1.0  0.14120  0.50043  0.40098  1.0000
  C   C205      1.0  0.62784  0.93453  0.61795  1.0000
  C   C206      1.0  0.62932  0.91670  0.71778  1.0000
  C  Sn23      1.0  0.60744  0.91722  0.81650  1.0000
  C  Sn24      1.0  0.58365  0.93596  0.81495  1.0000
  C   C207      1.0  0.58236  0.95369  0.71456  1.0000
  C   C208      1.0  0.60438  0.95300  0.61630  1.0000
  H   H119      1.0  0.64487  0.93398  0.54185  1.0000
  O  Te23      1.0  0.60927  0.89927  0.91556  1.0000
  O  Te24      1.0  0.56148  0.93690  0.91236  1.0000
  H   H120      1.0  0.60321  0.96679  0.53893  1.0000
  Mg  Mg12      1.0  0.56240  0.82082  0.02665  1.0000
  C   C209      1.0  0.90834  0.40232  0.67658  1.0000
  C   C210      1.0  0.88082  0.40580  0.71901  1.0000
  C  Sn25      1.0  0.86838  0.43731  0.77418  1.0000
  C  Sn26      1.0  0.88384  0.46582  0.78693  1.0000
  C   C211      1.0  0.91136  0.46207  0.74407  1.0000
  C   C212      1.0  0.92360  0.43043  0.68906  1.0000
  H   H121      1.0  0.91781  0.37783  0.63393  1.0000
  O  Te25      1.0  0.84087  0.44034  0.81612  1.0000
  O  Te26      1.0  0.87193  0.49761  0.84165  1.0000
  H   H122      1.0  0.94490  0.42774  0.65611  1.0000
  Mg  Mg13      1.0  0.83379  0.48894  0.88436  1.0000
  C   C213      1.0  0.22390  0.77034  0.27764  1.0000
  C   C214      1.0  0.22653  0.73660  0.24935  1.0000
  C  Sn27      1.0  0.25242  0.72183  0.22587  1.0000
  C  Sn28      1.0  0.27608  0.74127  0.23092  1.0000
  C   C215      1.0  0.27323  0.77501  0.25943  1.0000
  C   C216      1.0  0.24722  0.78954  0.28271  1.0000
  H   H123      1.0  0.20378  0.78159  0.29575  1.0000
  O  Te27      1.0  0.25468  0.68808  0.19769  1.0000
  O  Te28      1.0  0.30220  0.72715  0.20791  1.0000
  H   H124      1.0  0.24519  0.81567  0.30472  1.0000
  Mg  Mg14      1.0  0.29471  0.68016  0.17340  1.0000
  C   C217      1.0  0.71164  0.17403  0.85343  1.0000
  C   C218      1.0  0.71071  0.19525  0.77151  1.0000
  C  Sn29      1.0  0.68593  0.19905  0.69084  1.0000
  C  Sn30      1.0  0.66167  0.18124  0.69247  1.0000
  C   C219      1.0  0.66281  0.16009  0.77488  1.0000
  C   C220      1.0  0.68772  0.15647  0.85516  1.0000
  H   H125      1.0  0.73091  0.17123  0.91563  1.0000
  O  Te29      1.0  0.68536  0.22034  0.60953  1.0000
  O  Te30      1.0  0.63662  0.18459  0.61290  1.0000
  H   H126      1.0  0.68843  0.14005  0.91867  1.0000
  Mg  Mg15      1.0  0.64631  0.21659  0.51893  1.0000
  C   C221      1.0  0.70192  0.84737  0.77353  1.0000
  C   C222      1.0  0.67316  0.84350  0.76005  1.0000
  C  Sn31      1.0  0.66083  0.81357  0.74602  1.0000
  C  Sn32      1.0  0.67767  0.78708  0.74555  1.0000
  C   C223      1.0  0.70643  0.79122  0.75922  1.0000
  C   C224      1.0  0.71855  0.82127  0.77315  1.0000
  H   H127      1.0  0.71130  0.87063  0.78440  1.0000
  O  Te31      1.0  0.63206  0.81011  0.73260  1.0000
  O  Te32      1.0  0.66590  0.75691  0.73175  1.0000
  H   H128      1.0  0.74082  0.82427  0.78369  1.0000
  Mg  Mg16      1.0  0.62573  0.76422  0.71651  1.0000
  C   C225      1.0  0.22401  0.23282  0.70033  1.0000
  C   C226      1.0  0.22601  0.26729  0.73993  1.0000
  C  Sn33      1.0  0.25150  0.28485  0.79540  1.0000
  C  Sn34      1.0  0.27540  0.26751  0.81135  1.0000
  C   C227      1.0  0.27320  0.23302  0.77130  1.0000
  C   C228      1.0  0.24758  0.21570  0.71596  1.0000
  H   H129      1.0  0.20420  0.21941  0.65742  1.0000
  O  Te33      1.0  0.25312  0.31928  0.83449  1.0000
  O  Te34      1.0  0.30114  0.28444  0.86644  1.0000
  H   H130      1.0  0.24605  0.18900  0.68520  1.0000
  Mg  Mg17      1.0  0.29282  0.33132  0.90452  1.0000
  C   C229      1.0  0.71320  0.82496  0.16772  1.0000
  C   C230      1.0  0.71194  0.80353  0.24786  1.0000
  C  Sn35      1.0  0.68804  0.80142  0.32514  1.0000
  C  Sn36      1.0  0.66502  0.82115  0.32188  1.0000
  C   C231      1.0  0.66648  0.84249  0.24127  1.0000
  C   C232      1.0  0.69049  0.84442  0.16439  1.0000
  H   H131      1.0  0.73177  0.82644  0.10815  1.0000
  O  Te35      1.0  0.68714  0.77989  0.40470  1.0000
  O  Te36      1.0  0.64088  0.81952  0.39806  1.0000
  H   H132      1.0  0.69145  0.86100  0.10225  1.0000
  Mg  Mg18      1.0  0.64965  0.78643  0.49073  1.0000
  C   C233      1.0  0.77264  0.75409  0.66664  1.0000
  C   C234      1.0  0.77356  0.73234  0.74549  1.0000
  C  Sn37      1.0  0.75061  0.72829  0.82520  1.0000
  C  Sn38      1.0  0.72633  0.74639  0.82573  1.0000
  C   C235      1.0  0.72562  0.76807  0.74639  1.0000
  C   C236      1.0  0.74870  0.77194  0.66705  1.0000
  H   H133      1.0  0.79049  0.75708  0.60517  1.0000
  O  Te37      1.0  0.75188  0.70646  0.90343  1.0000
  O  Te38      1.0  0.70310  0.74281  0.90441  1.0000
  H   H134      1.0  0.74798  0.78877  0.60591  1.0000
  Mg  Mg19      1.0  0.71490  0.71007  0.99393  1.0000
  C   C237      1.0  0.63224  0.04471  0.75636  1.0000
  C   C238      1.0  0.63094  0.07591  0.75160  1.0000
  C  Sn39      1.0  0.60464  0.08897  0.75269  1.0000
  C  Sn40      1.0  0.58118  0.07040  0.75872  1.0000
  C   C239      1.0  0.58270  0.03922  0.76357  1.0000
  C   C240      1.0  0.60911  0.02638  0.76237  1.0000
  H   H135      1.0  0.65268  0.03478  0.75552  1.0000
  O  Te39      1.0  0.60177  0.12018  0.74782  1.0000
  O  Te40      1.0  0.55465  0.08287  0.76000  1.0000
  H   H136      1.0  0.61162  0.00223  0.76617  1.0000
  Mg  Mg20      1.0  0.56135  0.12657  0.75181  1.0000
