data_image0
_chemical_formula_structural       H120C204S24N32C2Sn2C2HTe2HMgC2Sn2C2HTe2HMgC2Sn2C2HTe2HMgC2Sn2C2HTe2HMgC2Sn2C2HTe2HMgC2Sn2C2HTe2HMgC2Sn2C2HTe2HMgC2Sn2C2HTe2HMgC2Sn2C2HTe2HMgC2Sn2C2HTe2HMgC2Sn2C2HTe2HMgC2Sn2C2HTe2HMgC2Sn2C2HTe2HMgC2Sn2C2HTe2HMgC2Sn2C2HTe2HMgC2Sn2C2HTe2HMgC2Sn2C2HTe2HMgC2Sn2C2HTe2HMgC2Sn2C2HTe2HMgC2Sn2C2HTe2HMgC2Sn2C2HTe2HMgC2Sn2C2HTe2HMgC2Sn2C2HTe2HMgC2Sn2C2HTe2HMg
_chemical_formula_sum              "H168 C300 S24 N32 Sn48 Te48 Mg24"
_cell_length_a       10.344
_cell_length_b       87.8834
_cell_length_c       27.1818
_cell_angle_alpha    90.5872
_cell_angle_beta     90.5697
_cell_angle_gamma    90.2136

_symmetry_space_group_name_H-M    'P1'
_space_group_IT_number       1

loop_
  _space_group_symop_operation_xyz
  'x, y, z'

loop_
  _atom_site_type_symbol
  _atom_site_label
  _atom_site_symmetry_multiplicity
  _atom_site_fract_x
  _atom_site_fract_y
  _atom_site_fract_z
  _atom_site_occupancy
  H   H1        1.0  0.58978  0.80609  0.46699  1.0000
  H   H2        1.0  0.45261  0.19246  0.45799  1.0000
  H   H3        1.0  0.89326  0.33496  0.59157  1.0000
  H   H4        1.0  0.10339  0.69674  0.52957  1.0000
  H   H5        1.0  0.47147  0.17953  0.56040  1.0000
  H   H6        1.0  0.64983  0.19875  0.47704  1.0000
  H   H7        1.0  0.39251  0.83495  0.42225  1.0000
  H   H8        1.0  0.63427  0.79149  0.38985  1.0000
  H   H9        1.0  0.42046  0.20830  0.38333  1.0000
  H   H10       1.0  0.88900  0.31960  0.66671  1.0000
  H   H11       1.0  0.14861  0.71041  0.60782  1.0000
  H   H12       1.0  0.44167  0.19440  0.63713  1.0000
  H   H13       1.0  0.68711  0.21240  0.39923  1.0000
  H   H14       1.0  0.38535  0.82099  0.34392  1.0000
  H   H15       1.0  0.96710  0.81984  0.36459  1.0000
  H   H16       1.0  0.04915  0.18742  0.35961  1.0000
  H   H17       1.0  0.62779  0.28776  0.59608  1.0000
  H   H18       1.0  0.42667  0.67625  0.64751  1.0000
  H   H19       1.0  0.03471  0.19790  0.60381  1.0000
  H   H20       1.0  0.87500  0.17307  0.33896  1.0000
  H   H21       1.0  0.13283  0.78754  0.40680  1.0000
  H   H22       1.0  0.91962  0.83467  0.44022  1.0000
  H   H23       1.0  0.08411  0.17108  0.43325  1.0000
  H   H24       1.0  0.62536  0.30358  0.52129  1.0000
  H   H25       1.0  0.37805  0.66223  0.56880  1.0000
  H   H26       1.0  0.06747  0.18303  0.52625  1.0000
  H   H27       1.0  0.84897  0.15961  0.41803  1.0000
  H   H28       1.0  0.13508  0.80216  0.48614  1.0000
  H   H29       1.0  0.33241  0.15443  0.41547  1.0000
  H   H30       1.0  0.84680  0.15115  0.56380  1.0000
  H   H31       1.0  0.19657  0.34893  0.42789  1.0000
  H   H32       1.0  0.87740  0.65235  0.42817  1.0000
  H   H33       1.0  0.23290  0.15363  0.56873  1.0000
  H   H34       1.0  0.59915  0.15416  0.43519  1.0000
  H   H35       1.0  0.70731  0.65370  0.57231  1.0000
  H   H36       1.0  0.21756  0.34613  0.58588  1.0000
  H   H37       1.0  0.31852  0.12623  0.41214  1.0000
  H   H38       1.0  0.84149  0.12343  0.55785  1.0000
  H   H39       1.0  0.20036  0.37679  0.43379  1.0000
  H   H40       1.0  0.88447  0.62428  0.43125  1.0000
  H   H41       1.0  0.21891  0.12566  0.56485  1.0000
  H   H42       1.0  0.60220  0.12585  0.42758  1.0000
  H   H43       1.0  0.72332  0.62551  0.57619  1.0000
  H   H44       1.0  0.22563  0.37422  0.59146  1.0000
  H   H45       1.0  0.65297  0.80232  0.29766  1.0000
  H   H46       1.0  0.34630  0.19576  0.28287  1.0000
  H   H47       1.0  0.34926  0.80134  0.70784  1.0000
  H   H48       1.0  0.66744  0.19066  0.72531  1.0000
  H   H49       1.0  0.14825  0.30741  0.28057  1.0000
  H   H50       1.0  0.86225  0.70108  0.30031  1.0000
  H   H51       1.0  0.82001  0.30860  0.72933  1.0000
  H   H52       1.0  0.11874  0.70262  0.69394  1.0000
  H   H53       1.0  0.33655  0.19263  0.71203  1.0000
  H   H54       1.0  0.69814  0.80894  0.72522  1.0000
  H   H55       1.0  0.62681  0.19738  0.29243  1.0000
  H   H56       1.0  0.32814  0.80969  0.27828  1.0000
  H   H57       1.0  0.80730  0.68962  0.72240  1.0000
  H   H58       1.0  0.14725  0.30231  0.70508  1.0000
  H   H59       1.0  0.19150  0.68975  0.27478  1.0000
  H   H60       1.0  0.87479  0.30448  0.29339  1.0000
  H   H61       1.0  0.63459  0.80229  0.80678  1.0000
  H   H62       1.0  0.39547  0.19833  0.79422  1.0000
  H   H63       1.0  0.57842  0.20171  0.20662  1.0000
  H   H64       1.0  0.09775  0.29785  0.78921  1.0000
  H   H65       1.0  0.37236  0.19917  0.19567  1.0000
  H   H66       1.0  0.11930  0.30269  0.19528  1.0000
  H   H67       1.0  0.03765  0.70853  0.77329  1.0000
  H   H68       1.0  0.62997  0.78457  0.87676  1.0000
  H   H69       1.0  0.39518  0.21519  0.86785  1.0000
  H   H70       1.0  0.59092  0.21842  0.13388  1.0000
  H   H71       1.0  0.10647  0.28171  0.86327  1.0000
  H   H72       1.0  0.36822  0.21585  0.12299  1.0000
  H   H73       1.0  0.13030  0.28566  0.12237  1.0000
  H   H74       1.0  0.04858  0.72315  0.85138  1.0000
  H   H75       1.0  0.88195  0.75414  0.79808  1.0000
  H   H76       1.0  0.10915  0.24352  0.79708  1.0000
  H   H77       1.0  0.90193  0.24345  0.20212  1.0000
  H   H78       1.0  0.39934  0.25415  0.79507  1.0000
  H   H79       1.0  0.12759  0.24751  0.20129  1.0000
  H   H80       1.0  0.39436  0.25665  0.20146  1.0000
  H   H81       1.0  0.43102  0.73862  0.81462  1.0000
  H   H82       1.0  0.87538  0.77138  0.72634  1.0000
  H   H83       1.0  0.11387  0.22666  0.72369  1.0000
  H   H84       1.0  0.89062  0.22653  0.27582  1.0000
  H   H85       1.0  0.39259  0.27068  0.72130  1.0000
  H   H86       1.0  0.13918  0.23105  0.27516  1.0000
  H   H87       1.0  0.37901  0.27358  0.27448  1.0000
  H   H88       1.0  0.42427  0.72291  0.73821  1.0000
  H   H89       1.0  0.74898  0.92392  0.41403  1.0000
  H   H90       1.0  0.23039  0.08115  0.44161  1.0000
  H   H91       1.0  0.25749  0.42355  0.41480  1.0000
  H   H92       1.0  0.72840  0.57462  0.40805  1.0000
  H   H93       1.0  0.77824  0.41870  0.55337  1.0000
  H   H94       1.0  0.27423  0.57536  0.58884  1.0000
  H   H95       1.0  0.36889  0.08061  0.59088  1.0000
  H   H96       1.0  0.65405  0.91697  0.56535  1.0000
  H   H97       1.0  0.85458  0.58425  0.55626  1.0000
  H   H98       1.0  0.18587  0.41836  0.56887  1.0000
  H   H99       1.0  0.13505  0.58413  0.44272  1.0000
  H   H100      1.0  0.81381  0.42131  0.39659  1.0000
  H   H101      1.0  0.68525  0.95124  0.42158  1.0000
  H   H102      1.0  0.28681  0.05367  0.43208  1.0000
  H   H103      1.0  0.18562  0.45051  0.41951  1.0000
  H   H104      1.0  0.79000  0.54736  0.41812  1.0000
  H   H105      1.0  0.84107  0.44603  0.56155  1.0000
  H   H106      1.0  0.21311  0.54796  0.57907  1.0000
  H   H107      1.0  0.42471  0.05337  0.58182  1.0000
  H   H108      1.0  0.59468  0.94448  0.57365  1.0000
  H   H109      1.0  0.91381  0.55684  0.56633  1.0000
  H   H110      1.0  0.11821  0.44566  0.57407  1.0000
  H   H111      1.0  0.07736  0.55681  0.43211  1.0000
  H   H112      1.0  0.87951  0.44849  0.40417  1.0000
  H   H113      1.0  0.27064  0.39887  0.44860  1.0000
  H   H114      1.0  0.74965  0.60145  0.43615  1.0000
  H   H115      1.0  0.76522  0.39712  0.43344  1.0000
  H   H116      1.0  0.24645  0.60212  0.56157  1.0000
  H   H117      1.0  0.74559  0.89845  0.44461  1.0000
  H   H118      1.0  0.31545  0.10417  0.55675  1.0000
  H   H119      1.0  0.27741  0.89711  0.43753  1.0000
  H   H120      1.0  0.78609  0.10043  0.55304  1.0000
  C   C1        1.0  0.73747  0.75799  0.12012  1.0000
  C   C2        1.0  0.25760  0.24332  0.11486  1.0000
  C   C3        1.0  0.25553  0.75707  0.88315  1.0000
  C   C4        1.0  0.73257  0.24158  0.88704  1.0000
  C   C5        1.0  0.25785  0.25894  0.11471  1.0000
  C   C6        1.0  0.73640  0.74246  0.11978  1.0000
  C   C7        1.0  0.73838  0.25721  0.88651  1.0000
  C   C8        1.0  0.24702  0.74158  0.88302  1.0000
  C   C9        1.0  0.26162  0.24149  0.87960  1.0000
  C   C10       1.0  0.74273  0.75716  0.88371  1.0000
  C   C11       1.0  0.74495  0.24237  0.12081  1.0000
  C   C12       1.0  0.26477  0.75799  0.11760  1.0000
  C   C13       1.0  0.74054  0.74150  0.88341  1.0000
  C   C14       1.0  0.25663  0.25704  0.87823  1.0000
  C   C15       1.0  0.25785  0.74235  0.11857  1.0000
  C   C16       1.0  0.75259  0.25793  0.12136  1.0000
  C   C17       1.0  0.67127  0.80913  0.44405  1.0000
  C   C18       1.0  0.36515  0.19127  0.43601  1.0000
  C   C19       1.0  0.83219  0.32483  0.59309  1.0000
  C   C20       1.0  0.17252  0.69214  0.55582  1.0000
  C   C21       1.0  0.37590  0.18331  0.57080  1.0000
  C   C22       1.0  0.70159  0.19309  0.44747  1.0000
  C   C23       1.0  0.33265  0.82477  0.41855  1.0000
  C   C24       1.0  0.69560  0.80106  0.40078  1.0000
  C   C25       1.0  0.34760  0.20007  0.39409  1.0000
  C   C26       1.0  0.82903  0.31608  0.63538  1.0000
  C   C27       1.0  0.19876  0.69984  0.59974  1.0000
  C   C28       1.0  0.35817  0.19165  0.61402  1.0000
  C   C29       1.0  0.71931  0.20071  0.40343  1.0000
  C   C30       1.0  0.32847  0.81670  0.37434  1.0000
  C   C31       1.0  0.80165  0.80492  0.37124  1.0000
  C   C32       1.0  0.23375  0.19849  0.36600  1.0000
  C   C33       1.0  0.75414  0.30257  0.63742  1.0000
  C   C34       1.0  0.28851  0.69401  0.63396  1.0000
  C   C35       1.0  0.23377  0.19678  0.62659  1.0000
  C   C36       1.0  0.78360  0.19367  0.36409  1.0000
  C   C37       1.0  0.25391  0.80320  0.36891  1.0000
  C   C38       1.0  0.88311  0.81699  0.38655  1.0000
  C   C39       1.0  0.13790  0.18824  0.38116  1.0000
  C   C40       1.0  0.68413  0.29821  0.59474  1.0000
  C   C41       1.0  0.35459  0.68051  0.62176  1.0000
  C   C42       1.0  0.12998  0.19378  0.59399  1.0000
  C   C43       1.0  0.82819  0.17870  0.36987  1.0000
  C   C44       1.0  0.18859  0.79801  0.41091  1.0000
  C   C45       1.0  0.85638  0.82528  0.42917  1.0000
  C   C46       1.0  0.15805  0.17913  0.42208  1.0000
  C   C47       1.0  0.68305  0.30718  0.55308  1.0000
  C   C48       1.0  0.32795  0.67277  0.57782  1.0000
  C   C49       1.0  0.14858  0.18547  0.55089  1.0000
  C   C50       1.0  0.81315  0.17118  0.41434  1.0000
  C   C51       1.0  0.18974  0.80620  0.45486  1.0000
  C   C52       1.0  0.75042  0.82137  0.45851  1.0000
  C   C53       1.0  0.27226  0.18063  0.45001  1.0000
  C   C54       1.0  0.75779  0.32063  0.55124  1.0000
  C   C55       1.0  0.23579  0.67850  0.54443  1.0000
  C   C56       1.0  0.27201  0.18013  0.53915  1.0000
  C   C57       1.0  0.75097  0.17835  0.45427  1.0000
  C   C58       1.0  0.26017  0.81990  0.45944  1.0000
  C   C59       1.0  0.30782  0.14811  0.44816  1.0000
  C   C60       1.0  0.79137  0.14573  0.53425  1.0000
  C   C61       1.0  0.20542  0.35448  0.46367  1.0000
  C   C62       1.0  0.84022  0.64651  0.46019  1.0000
  C   C63       1.0  0.25353  0.14767  0.53453  1.0000
  C   C64       1.0  0.65202  0.14743  0.46188  1.0000
  C   C65       1.0  0.74606  0.64729  0.54146  1.0000
  C   C66       1.0  0.21693  0.35281  0.55251  1.0000
  C   C67       1.0  0.29977  0.13237  0.44623  1.0000
  C   C68       1.0  0.78870  0.12996  0.53075  1.0000
  C   C69       1.0  0.20883  0.37024  0.46737  1.0000
  C   C70       1.0  0.84224  0.63069  0.46152  1.0000
  C   C71       1.0  0.24566  0.13189  0.53213  1.0000
  C   C72       1.0  0.65392  0.13166  0.45741  1.0000
  C   C73       1.0  0.75447  0.63158  0.54369  1.0000
  C   C74       1.0  0.22054  0.36858  0.55569  1.0000
  C   C75       1.0  0.74245  0.79570  0.29440  1.0000
  C   C76       1.0  0.27564  0.20506  0.28512  1.0000
  C   C77       1.0  0.25789  0.79507  0.71191  1.0000
  C   C78       1.0  0.72007  0.20136  0.71934  1.0000
  C   C79       1.0  0.22250  0.29849  0.28440  1.0000
  C   C80       1.0  0.76378  0.70501  0.29173  1.0000
  C   C81       1.0  0.77754  0.29730  0.72156  1.0000
  C   C82       1.0  0.21780  0.70569  0.70519  1.0000
  C   C83       1.0  0.26965  0.20230  0.70935  1.0000
  C   C84       1.0  0.73920  0.79757  0.71822  1.0000
  C   C85       1.0  0.71950  0.20345  0.28895  1.0000
  C   C86       1.0  0.27768  0.79880  0.28372  1.0000
  C   C87       1.0  0.76981  0.70115  0.71563  1.0000
  C   C88       1.0  0.23353  0.29500  0.70698  1.0000
  C   C89       1.0  0.22539  0.70142  0.28267  1.0000
  C   C90       1.0  0.80073  0.29550  0.29418  1.0000
  C   C91       1.0  0.68681  0.79158  0.80458  1.0000
  C   C92       1.0  0.33328  0.20829  0.79523  1.0000
  C   C93       1.0  0.64945  0.21085  0.20571  1.0000
  C   C94       1.0  0.16470  0.28835  0.79079  1.0000
  C   C95       1.0  0.32079  0.20991  0.19731  1.0000
  C   C96       1.0  0.17745  0.29241  0.19675  1.0000
  C   C97       1.0  0.12492  0.71489  0.78289  1.0000
  C   C98       1.0  0.68537  0.78168  0.84416  1.0000
  C   C99       1.0  0.33257  0.21775  0.83662  1.0000
  C   C100      1.0  0.65699  0.22009  0.16472  1.0000
  C   C101      1.0  0.16949  0.27928  0.83240  1.0000
  C   C102      1.0  0.31691  0.21915  0.15610  1.0000
  C   C103      1.0  0.18447  0.28289  0.15564  1.0000
  C   C104      1.0  0.13126  0.72305  0.82700  1.0000
  C   C105      1.0  0.75111  0.76766  0.84211  1.0000
  C   C106      1.0  0.25586  0.23097  0.83738  1.0000
  C   C107      1.0  0.74590  0.23220  0.16341  1.0000
  C   C108      1.0  0.25246  0.26664  0.83422  1.0000
  C   C109      1.0  0.25259  0.23324  0.15742  1.0000
  C   C110      1.0  0.25850  0.26945  0.15713  1.0000
  C   C111      1.0  0.24101  0.73190  0.83831  1.0000
  C   C112      1.0  0.82458  0.76445  0.79965  1.0000
  C   C113      1.0  0.17357  0.23377  0.79658  1.0000
  C   C114      1.0  0.83176  0.23427  0.20360  1.0000
  C   C115      1.0  0.33378  0.26377  0.79371  1.0000
  C   C116      1.0  0.18339  0.23708  0.20034  1.0000
  C   C117      1.0  0.33170  0.26655  0.20025  1.0000
  C   C118      1.0  0.34600  0.73179  0.80574  1.0000
  C   C119      1.0  0.82187  0.77405  0.75954  1.0000
  C   C120      1.0  0.17548  0.22439  0.75539  1.0000
  C   C121      1.0  0.82562  0.22493  0.24439  1.0000
  C   C122      1.0  0.33004  0.27294  0.75251  1.0000
  C   C123      1.0  0.18868  0.22792  0.24147  1.0000
  C   C124      1.0  0.32303  0.27596  0.24135  1.0000
  C   C125      1.0  0.34207  0.72305  0.76288  1.0000
  C   C126      1.0  0.75056  0.78771  0.76082  1.0000
  C   C127      1.0  0.25802  0.21169  0.75352  1.0000
  C   C128      1.0  0.73290  0.21316  0.24608  1.0000
  C   C129      1.0  0.24416  0.28534  0.75025  1.0000
  C   C130      1.0  0.26072  0.21435  0.24119  1.0000
  C   C131      1.0  0.24251  0.28888  0.24084  1.0000
  C   C132      1.0  0.23018  0.71463  0.75056  1.0000
  C   C133      1.0  0.71678  0.92853  0.44914  1.0000
  C   C134      1.0  0.27111  0.07481  0.47215  1.0000
  C   C135      1.0  0.22883  0.42847  0.44986  1.0000
  C   C136      1.0  0.76815  0.57070  0.44294  1.0000
  C   C137      1.0  0.79737  0.42553  0.52115  1.0000
  C   C138      1.0  0.23256  0.57120  0.55429  1.0000
  C   C139      1.0  0.34861  0.07470  0.55630  1.0000
  C   C140      1.0  0.66298  0.92468  0.53457  1.0000
  C   C141      1.0  0.83877  0.57603  0.52665  1.0000
  C   C142      1.0  0.18901  0.42566  0.53687  1.0000
  C   C143      1.0  0.15365  0.57605  0.47190  1.0000
  C   C144      1.0  0.81787  0.42683  0.43264  1.0000
  C   C145      1.0  0.68179  0.94380  0.45329  1.0000
  C   C146      1.0  0.30225  0.05947  0.46723  1.0000
  C   C147      1.0  0.18863  0.44357  0.45236  1.0000
  C   C148      1.0  0.80112  0.55539  0.44861  1.0000
  C   C149      1.0  0.83309  0.44071  0.52533  1.0000
  C   C150      1.0  0.19921  0.55584  0.54880  1.0000
  C   C151      1.0  0.37973  0.05938  0.55144  1.0000
  C   C152      1.0  0.63015  0.93993  0.53897  1.0000
  C   C153      1.0  0.87116  0.56087  0.53221  1.0000
  C   C154      1.0  0.15044  0.44075  0.53947  1.0000
  C   C155      1.0  0.12290  0.56081  0.46603  1.0000
  C   C156      1.0  0.85451  0.44210  0.43682  1.0000
  C   C157      1.0  0.72448  0.74986  0.02697  1.0000
  C   C158      1.0  0.26324  0.25073  0.02171  1.0000
  C   C159      1.0  0.27057  0.74927  0.97545  1.0000
  C   C160      1.0  0.72463  0.25014  0.97912  1.0000
  C   C161      1.0  0.26774  0.25037  0.97171  1.0000
  C   C162      1.0  0.72964  0.74959  0.97688  1.0000
  C   C163      1.0  0.73335  0.25025  0.02895  1.0000
  C   C164      1.0  0.27791  0.74932  0.02546  1.0000
  C   C165      1.0  0.56263  0.03654  0.49817  1.0000
  C   C166      1.0  0.42607  0.96359  0.49872  1.0000
  C   C167      1.0  0.43106  0.03701  0.49981  1.0000
  C   C168      1.0  0.55773  0.96384  0.49911  1.0000
  C   C169      1.0  0.06377  0.53619  0.50334  1.0000
  C   C170      1.0  0.93753  0.46367  0.49025  1.0000
  C   C171      1.0  0.93271  0.53611  0.49632  1.0000
  C   C172      1.0  0.06778  0.46392  0.49741  1.0000
  C   C173      1.0  0.27000  0.12382  0.48815  1.0000
  C   C174      1.0  0.72129  0.12263  0.49172  1.0000
  C   C175      1.0  0.21924  0.37773  0.51346  1.0000
  C   C176      1.0  0.79784  0.62290  0.50327  1.0000
  C   C177      1.0  0.28488  0.15613  0.49240  1.0000
  C   C178      1.0  0.72441  0.15466  0.49962  1.0000
  C   C179      1.0  0.21259  0.34539  0.50615  1.0000
  C   C180      1.0  0.78920  0.65506  0.49960  1.0000
  C   C181      1.0  0.71921  0.90224  0.48194  1.0000
  C   C182      1.0  0.29109  0.09940  0.52017  1.0000
  C   C183      1.0  0.27578  0.90141  0.47579  1.0000
  C   C184      1.0  0.74858  0.09719  0.51633  1.0000
  C   C185      1.0  0.24236  0.40277  0.48553  1.0000
  C   C186      1.0  0.77865  0.59772  0.47322  1.0000
  C   C187      1.0  0.77567  0.40176  0.47111  1.0000
  C   C188      1.0  0.21805  0.59807  0.52453  1.0000
  C   C189      1.0  0.63211  0.94947  0.49767  1.0000
  C   C190      1.0  0.36262  0.05171  0.50625  1.0000
  C   C191      1.0  0.14310  0.44963  0.49676  1.0000
  C   C192      1.0  0.86053  0.55056  0.49234  1.0000
  C   C193      1.0  0.86736  0.44904  0.48337  1.0000
  C   C194      1.0  0.13666  0.55067  0.50556  1.0000
  C   C195      1.0  0.70207  0.91860  0.48898  1.0000
  C   C196      1.0  0.29915  0.08286  0.51613  1.0000
  C   C197      1.0  0.22337  0.41910  0.49140  1.0000
  C   C198      1.0  0.79294  0.58135  0.48099  1.0000
  C   C199      1.0  0.79374  0.41821  0.47491  1.0000
  C   C200      1.0  0.20334  0.58167  0.51696  1.0000
  C   C201      1.0  0.48966  0.00799  0.49822  1.0000
  C   C202      1.0  0.48889  0.99245  0.49890  1.0000
  C   C203      1.0  0.99549  0.50767  0.50626  1.0000
  C   C204      1.0  0.99628  0.49217  0.50511  1.0000
  S   S1        1.0  0.72020  0.73320  0.06254  1.0000
  S   S2        1.0  0.26139  0.26768  0.05674  1.0000
  S   S3        1.0  0.25937  0.73241  0.93992  1.0000
  S   S4        1.0  0.72268  0.26669  0.94372  1.0000
  S   S5        1.0  0.26190  0.23406  0.05706  1.0000
  S   S6        1.0  0.71986  0.76683  0.06228  1.0000
  S   S7        1.0  0.70771  0.23321  0.94493  1.0000
  S   S8        1.0  0.27754  0.76612  0.94082  1.0000
  S   S9        1.0  0.26766  0.26679  0.93511  1.0000
  S   S10       1.0  0.72839  0.73267  0.94141  1.0000
  S   S11       1.0  0.74531  0.26711  0.06419  1.0000
  S   S12       1.0  0.27658  0.73283  0.06133  1.0000
  S   S13       1.0  0.73392  0.76623  0.94165  1.0000
  S   S14       1.0  0.27866  0.23320  0.93804  1.0000
  S   S15       1.0  0.29437  0.76618  0.05991  1.0000
  S   S16       1.0  0.72971  0.23336  0.06305  1.0000
  S   S17       1.0  0.63555  0.01857  0.49570  1.0000
  S   S18       1.0  0.34640  0.98121  0.49870  1.0000
  S   S19       1.0  0.34915  0.01946  0.49953  1.0000
  S   S20       1.0  0.63379  0.98170  0.49932  1.0000
  S   S21       1.0  0.13788  0.51864  0.51492  1.0000
  S   S22       1.0  0.85507  0.48099  0.49696  1.0000
  S   S23       1.0  0.85291  0.51852  0.49995  1.0000
  S   S24       1.0  0.13938  0.48150  0.51282  1.0000
  N   N1        1.0  0.82958  0.79646  0.32852  1.0000
  N   N2        1.0  0.20993  0.20748  0.32450  1.0000
  N   N3        1.0  0.16528  0.79652  0.68004  1.0000
  N   N4        1.0  0.76560  0.20527  0.67700  1.0000
  N   N5        1.0  0.28865  0.29683  0.32452  1.0000
  N   N6        1.0  0.66815  0.70130  0.31956  1.0000
  N   N7        1.0  0.74231  0.29297  0.67773  1.0000
  N   N8        1.0  0.31502  0.70143  0.67892  1.0000
  N   N9        1.0  0.20787  0.20533  0.66907  1.0000
  N   N10       1.0  0.77263  0.79300  0.67474  1.0000
  N   N11       1.0  0.80958  0.20208  0.32156  1.0000
  N   N12       1.0  0.23690  0.79439  0.32622  1.0000
  N   N13       1.0  0.73951  0.70593  0.67209  1.0000
  N   N14       1.0  0.31875  0.29513  0.67255  1.0000
  N   N15       1.0  0.25397  0.70607  0.32690  1.0000
  N   N16       1.0  0.73288  0.29316  0.33340  1.0000
  N   N17       1.0  0.70101  0.89292  0.51767  1.0000
  N   N18       1.0  0.26804  0.10796  0.48271  1.0000
  N   N19       1.0  0.27450  0.89247  0.51321  1.0000
  N   N20       1.0  0.71392  0.10695  0.48356  1.0000
  N   N21       1.0  0.21919  0.39347  0.52106  1.0000
  N   N22       1.0  0.80001  0.60719  0.50909  1.0000
  N   N23       1.0  0.77541  0.39335  0.50988  1.0000
  N   N24       1.0  0.19947  0.60724  0.48835  1.0000
  N   N25       1.0  0.21013  0.32950  0.50219  1.0000
  N   N26       1.0  0.78149  0.67111  0.49735  1.0000
  N   N27       1.0  0.76257  0.32905  0.50687  1.0000
  N   N28       1.0  0.20829  0.67109  0.49862  1.0000
  N   N29       1.0  0.72497  0.82894  0.50428  1.0000
  N   N30       1.0  0.29331  0.17201  0.49386  1.0000
  N   N31       1.0  0.25945  0.82835  0.50392  1.0000
  N   N32       1.0  0.73761  0.17080  0.50031  1.0000
  C   C205      1.0  0.12193  0.67744  0.40160  1.0000
  C   C206      1.0  0.19910  0.67808  0.44406  1.0000
  C  Sn1       1.0  0.29536  0.68920  0.44921  1.0000
  C  Sn2       1.0  0.31446  0.69985  0.41107  1.0000
  C   C207      1.0  0.23669  0.69912  0.36875  1.0000
  C   C208      1.0  0.14067  0.68795  0.36397  1.0000
  H   H121      1.0  0.04759  0.66881  0.39791  1.0000
  O  Te1       1.0  0.37164  0.68967  0.49187  1.0000
  O  Te2       1.0  0.40994  0.71108  0.41526  1.0000
  H   H122      1.0  0.08087  0.68747  0.33110  1.0000
  Mg  Mg1       1.0  0.48930  0.70708  0.48043  1.0000
  C   C209      1.0  0.32673  0.86441  0.55304  1.0000
  C   C210      1.0  0.28774  0.87473  0.51709  1.0000
  C  Sn3       1.0  0.22969  0.86952  0.47342  1.0000
  C  Sn4       1.0  0.21041  0.85368  0.46571  1.0000
  C   C211      1.0  0.24967  0.84345  0.50192  1.0000
  C   C212      1.0  0.30770  0.84879  0.54547  1.0000
  H   H123      1.0  0.37157  0.86854  0.58675  1.0000
  O  Te3       1.0  0.19136  0.87998  0.43788  1.0000
  O  Te4       1.0  0.15259  0.84816  0.42241  1.0000
  H   H124      1.0  0.33780  0.84080  0.57332  1.0000
  Mg  Mg2       1.0  0.11686  0.86691  0.38493  1.0000
  C   C213      1.0  0.67959  0.86568  0.45910  1.0000
  C   C214      1.0  0.69493  0.87550  0.49951  1.0000
  C  Sn5       1.0  0.72905  0.86976  0.54557  1.0000
  C  Sn6       1.0  0.74813  0.85389  0.55116  1.0000
  C   C215      1.0  0.73264  0.84416  0.51050  1.0000
  C   C216      1.0  0.69844  0.85002  0.46458  1.0000
  H   H125      1.0  0.65320  0.87021  0.42356  1.0000
  O  Te5       1.0  0.74394  0.87973  0.58556  1.0000
  O  Te6       1.0  0.78232  0.84785  0.59678  1.0000
  H   H126      1.0  0.68664  0.84242  0.43329  1.0000
  Mg  Mg3       1.0  0.79125  0.86604  0.64026  1.0000
  C   C217      1.0  0.18858  0.71352  0.15919  1.0000
  C   C218      1.0  0.22894  0.72871  0.15910  1.0000
  C  Sn7       1.0  0.28341  0.73533  0.20146  1.0000
  C  Sn8       1.0  0.29764  0.72654  0.24466  1.0000
  C   C219      1.0  0.25704  0.71135  0.24437  1.0000
  C   C220      1.0  0.20263  0.70484  0.20178  1.0000
  H   H127      1.0  0.14654  0.70849  0.12624  1.0000
  O  Te7       1.0  0.32318  0.75052  0.20073  1.0000
  O  Te8       1.0  0.35180  0.73286  0.28750  1.0000
  H   H128      1.0  0.17146  0.69308  0.20186  1.0000
  Mg  Mg4       1.0  0.39132  0.75403  0.26826  1.0000
  C   C221      1.0  0.81791  0.22839  0.76756  1.0000
  C   C222      1.0  0.76021  0.21406  0.76194  1.0000
  C  Sn9       1.0  0.68674  0.20796  0.79986  1.0000
  C  Sn10      1.0  0.67089  0.21638  0.84419  1.0000
  C   C223      1.0  0.72893  0.23070  0.84944  1.0000
  C   C224      1.0  0.80228  0.23670  0.81126  1.0000
  H   H129      1.0  0.87461  0.23303  0.73801  1.0000
  O  Te9       1.0  0.62980  0.19363  0.79364  1.0000
  O  Te10      1.0  0.59792  0.21055  0.88268  1.0000
  H   H130      1.0  0.84687  0.24780  0.81561  1.0000
  Mg  Mg5       1.0  0.53940  0.19053  0.85667  1.0000
  C   C225      1.0  0.31947  0.93067  0.43460  1.0000
  C   C226      1.0  0.29436  0.91985  0.47064  1.0000
  C  Sn11      1.0  0.29217  0.92413  0.52027  1.0000
  C  Sn12      1.0  0.31556  0.93952  0.53396  1.0000
  C   C227      1.0  0.34049  0.95026  0.49762  1.0000
  C   C228      1.0  0.34250  0.94586  0.44807  1.0000
  H   H131      1.0  0.32095  0.92726  0.39625  1.0000
  O  Te11      1.0  0.26698  0.91317  0.55581  1.0000
  O  Te12      1.0  0.31389  0.94411  0.58330  1.0000
  H   H132      1.0  0.36186  0.95423  0.42017  1.0000
  Mg  Mg6       1.0  0.27507  0.92499  0.61823  1.0000
  C   C229      1.0  0.72964  0.05826  0.54780  1.0000
  C   C230      1.0  0.65630  0.05152  0.50995  1.0000
  C  Sn13      1.0  0.62528  0.05976  0.46779  1.0000
  C  Sn14      1.0  0.66864  0.07502  0.46354  1.0000
  C   C231      1.0  0.74203  0.08165  0.50160  1.0000
  C   C232      1.0  0.77248  0.07331  0.54363  1.0000
  H   H133      1.0  0.75327  0.05180  0.58031  1.0000
  O  Te13      1.0  0.55189  0.05286  0.43033  1.0000
  O  Te14      1.0  0.63906  0.08351  0.42180  1.0000
  H   H134      1.0  0.82933  0.07852  0.57292  1.0000
  Mg  Mg7       1.0  0.53640  0.06910  0.38065  1.0000
  C   C233      1.0  0.15008  0.30271  0.59421  1.0000
  C   C234      1.0  0.26373  0.30202  0.62231  1.0000
  C  Sn15      1.0  0.36754  0.31167  0.61211  1.0000
  C  Sn16      1.0  0.35707  0.32218  0.57303  1.0000
  C   C235      1.0  0.24292  0.32279  0.54515  1.0000
  C   C236      1.0  0.13965  0.31309  0.55567  1.0000
  H   H135      1.0  0.07015  0.29521  0.60236  1.0000
  O  Te15      1.0  0.48041  0.31082  0.64054  1.0000
  O  Te16      1.0  0.45932  0.33196  0.56204  1.0000
  H   H136      1.0  0.05164  0.31363  0.53392  1.0000
  Mg  Mg8       1.0  0.59323  0.32651  0.61128  1.0000
  C   C237      1.0  0.25451  0.63498  0.44766  1.0000
  C   C238      1.0  0.21282  0.62482  0.48343  1.0000
  C  Sn17      1.0  0.15918  0.63025  0.52716  1.0000
  C  Sn18      1.0  0.14715  0.64616  0.53512  1.0000
  C   C239      1.0  0.18907  0.65624  0.49910  1.0000
  C   C240      1.0  0.24264  0.65068  0.45548  1.0000
  H   H137      1.0  0.29589  0.63069  0.41390  1.0000
  O  Te17      1.0  0.11806  0.61993  0.56252  1.0000
  O  Te18      1.0  0.09385  0.65189  0.57849  1.0000
  H   H138      1.0  0.27483  0.65855  0.42778  1.0000
  Mg  Mg9       1.0  0.05185  0.63329  0.61565  1.0000
  C   C241      1.0  0.85575  0.28422  0.17169  1.0000
  C   C242      1.0  0.78606  0.27071  0.16446  1.0000
  C  Sn19      1.0  0.70696  0.26514  0.20160  1.0000
  C  Sn20      1.0  0.69762  0.27327  0.24678  1.0000
  C   C243      1.0  0.76766  0.28678  0.25365  1.0000
  C   C244      1.0  0.84656  0.29225  0.21624  1.0000
  H   H139      1.0  0.91675  0.28845  0.14274  1.0000
  O  Te19      1.0  0.63803  0.25163  0.19377  1.0000
  O  Te20      1.0  0.61925  0.26797  0.28452  1.0000
  H   H140      1.0  0.90044  0.30271  0.22184  1.0000
  Mg  Mg10      1.0  0.54420  0.24901  0.25630  1.0000
  C   C245      1.0  0.62731  0.72686  0.23224  1.0000
  C   C246      1.0  0.71724  0.71569  0.24474  1.0000
  C  Sn21      1.0  0.82676  0.71343  0.21593  1.0000
  C  Sn22      1.0  0.84637  0.72255  0.17387  1.0000
  C   C247      1.0  0.75587  0.73371  0.16170  1.0000
  C   C248      1.0  0.64660  0.73587  0.19077  1.0000
  H   H141      1.0  0.54279  0.72854  0.25475  1.0000
  O  Te21      1.0  0.91562  0.70221  0.22893  1.0000
  O  Te22      1.0  0.95501  0.72054  0.14445  1.0000
  H   H142      1.0  0.57703  0.74453  0.18111  1.0000
  Mg  Mg11      1.0  0.04855  0.70378  0.17726  1.0000
  C   C249      1.0  0.87494  0.67804  0.59355  1.0000
  C   C250      1.0  0.79652  0.67856  0.55145  1.0000
  C  Sn23      1.0  0.69799  0.68933  0.54785  1.0000
  C  Sn24      1.0  0.67786  0.69977  0.58719  1.0000
  C   C251      1.0  0.75690  0.69916  0.62914  1.0000
  C   C252      1.0  0.85518  0.68833  0.63236  1.0000
  H   H143      1.0  0.95103  0.66966  0.59604  1.0000
  O  Te23      1.0  0.62050  0.68969  0.50553  1.0000
  O  Te24      1.0  0.58012  0.71065  0.58455  1.0000
  H   H144      1.0  0.91594  0.68793  0.66496  1.0000
  Mg  Mg12      1.0  0.49980  0.70662  0.51927  1.0000
  C   C253      1.0  0.62757  0.67674  0.38302  1.0000
  C   C254      1.0  0.67289  0.69085  0.36716  1.0000
  C  Sn25      1.0  0.76798  0.69867  0.39425  1.0000
  C  Sn26      1.0  0.81847  0.69221  0.43801  1.0000
  C   C255      1.0  0.77256  0.67809  0.45356  1.0000
  C   C256      1.0  0.67736  0.67037  0.42617  1.0000
  H   H145      1.0  0.55397  0.67076  0.36183  1.0000
  O  Te25      1.0  0.81214  0.71275  0.37788  1.0000
  O  Te26      1.0  0.91360  0.69978  0.46578  1.0000
  H   H146      1.0  0.64235  0.65944  0.43845  1.0000
  Mg  Mg13      1.0  0.94271  0.71868  0.42838  1.0000
  C   C257      1.0  0.68390  0.17325  0.60192  1.0000
  C   C258      1.0  0.72153  0.17780  0.55506  1.0000
  C  Sn27      1.0  0.78369  0.19177  0.54870  1.0000
  C  Sn28      1.0  0.80855  0.20134  0.59010  1.0000
  C   C259      1.0  0.77060  0.19668  0.63684  1.0000
  C   C260      1.0  0.70842  0.18268  0.64278  1.0000
  H   H147      1.0  0.63586  0.16241  0.60653  1.0000
  O  Te27      1.0  0.82060  0.19614  0.50162  1.0000
  O  Te28      1.0  0.87056  0.21536  0.58480  1.0000
  H   H148      1.0  0.67937  0.17916  0.67907  1.0000
  Mg  Mg14      1.0  0.90227  0.21630  0.51317  1.0000
  C   C261      1.0  0.84008  0.76972  0.24035  1.0000
  C   C262      1.0  0.78067  0.78375  0.24876  1.0000
  C  Sn29      1.0  0.69691  0.78983  0.21350  1.0000
  C  Sn30      1.0  0.67233  0.78168  0.16904  1.0000
  C   C263      1.0  0.73217  0.76764  0.16099  1.0000
  C   C264      1.0  0.81585  0.76167  0.19652  1.0000
  H   H149      1.0  0.90478  0.76509  0.26785  1.0000
  O  Te29      1.0  0.63840  0.80386  0.22249  1.0000
  O  Te30      1.0  0.58899  0.78748  0.13318  1.0000
  H   H150      1.0  0.86177  0.75080  0.19001  1.0000
  Mg  Mg15      1.0  0.53238  0.80705  0.16242  1.0000
  C   C265      1.0  0.80381  0.71257  0.84026  1.0000
  C   C266      1.0  0.76034  0.72760  0.84246  1.0000
  C  Sn31      1.0  0.70292  0.73423  0.80121  1.0000
  C  Sn32      1.0  0.68884  0.72563  0.75701  1.0000
  C   C267      1.0  0.73256  0.71060  0.75520  1.0000
  C   C268      1.0  0.78992  0.70408  0.79668  1.0000
  H   H151      1.0  0.84813  0.70752  0.87236  1.0000
  O  Te31      1.0  0.66007  0.74926  0.80404  1.0000
  O  Te32      1.0  0.63176  0.73198  0.71525  1.0000
  H   H152      1.0  0.82349  0.69244  0.79498  1.0000
  Mg  Mg16      1.0  0.58864  0.75287  0.73731  1.0000
  C   C269      1.0  0.14914  0.76504  0.78839  1.0000
  C   C270      1.0  0.23359  0.76530  0.82884  1.0000
  C  Sn33      1.0  0.32817  0.77664  0.83328  1.0000
  C  Sn34      1.0  0.33813  0.78790  0.79649  1.0000
  C   C271      1.0  0.25312  0.78755  0.75618  1.0000
  C   C272      1.0  0.15886  0.77615  0.75209  1.0000
  H   H153      1.0  0.07616  0.75623  0.78524  1.0000
  O  Te33      1.0  0.41180  0.77673  0.87393  1.0000
  O  Te34      1.0  0.43173  0.79937  0.80002  1.0000
  H   H154      1.0  0.09344  0.77596  0.72079  1.0000
  Mg  Mg17      1.0  0.52341  0.79467  0.86230  1.0000
  C   C273      1.0  0.30466  0.80014  0.59280  1.0000
  C   C274      1.0  0.22046  0.80381  0.63097  1.0000
  C  Sn35      1.0  0.13727  0.81623  0.62673  1.0000
  C  Sn36      1.0  0.13861  0.82510  0.58343  1.0000
  C   C275      1.0  0.22316  0.82132  0.54543  1.0000
  C   C276      1.0  0.30601  0.80888  0.55007  1.0000
  H   H155      1.0  0.36873  0.79050  0.59637  1.0000
  O  Te35      1.0  0.05379  0.81975  0.66523  1.0000
  O  Te36      1.0  0.05646  0.83757  0.57822  1.0000
  H   H156      1.0  0.37114  0.80603  0.52049  1.0000
  Mg  Mg18      1.0  0.96017  0.83783  0.64081  1.0000
  C   C277      1.0  0.34538  0.79135  0.18537  1.0000
  C   C278      1.0  0.27011  0.79117  0.22777  1.0000
  C  Sn37      1.0  0.18568  0.77906  0.23625  1.0000
  C  Sn38      1.0  0.17668  0.76691  0.20158  1.0000
  C   C279      1.0  0.25246  0.76719  0.15929  1.0000
  C   C280      1.0  0.33659  0.77938  0.15116  1.0000
  H   H157      1.0  0.41053  0.80078  0.17908  1.0000
  O  Te37      1.0  0.11115  0.77906  0.27880  1.0000
  O  Te38      1.0  0.09312  0.75466  0.20915  1.0000
  H   H158      1.0  0.39492  0.77951  0.11834  1.0000
  Mg  Mg19      1.0  0.01146  0.75983  0.27270  1.0000
  C   C281      1.0  0.66552  0.26530  0.78724  1.0000
  C   C282      1.0  0.72870  0.26610  0.83288  1.0000
  C  Sn39      1.0  0.80791  0.27854  0.84477  1.0000
  C  Sn40      1.0  0.82394  0.29039  0.81027  1.0000
  C   C283      1.0  0.76024  0.28949  0.76472  1.0000
  C   C284      1.0  0.68124  0.27698  0.75319  1.0000
  H   H159      1.0  0.60433  0.25563  0.77832  1.0000
  O  Te39      1.0  0.87036  0.27915  0.89053  1.0000
  O  Te40      1.0  0.90250  0.30295  0.82121  1.0000
  H   H160      1.0  0.63227  0.27638  0.71786  1.0000
  Mg  Mg20      1.0  0.96732  0.29861  0.88838  1.0000
  C   C285      1.0  0.10600  0.31464  0.41722  1.0000
  C   C286      1.0  0.19851  0.32026  0.45059  1.0000
  C  Sn41      1.0  0.33007  0.31912  0.44007  1.0000
  C  Sn42      1.0  0.36945  0.31222  0.39527  1.0000
  C   C287      1.0  0.27614  0.30664  0.36211  1.0000
  C   C288      1.0  0.14475  0.30783  0.37301  1.0000
  H   H161      1.0  0.00434  0.31557  0.42564  1.0000
  O  Te41      1.0  0.42123  0.32479  0.47382  1.0000
  O  Te42      1.0  0.50029  0.31093  0.38382  1.0000
  H   H162      1.0  0.07314  0.30349  0.34715  1.0000
  Mg  Mg21      1.0  0.58806  0.32038  0.44162  1.0000
  C   C289      1.0  0.63356  0.82117  0.59890  1.0000
  C   C290      1.0  0.71357  0.82126  0.55778  1.0000
  C  Sn43      1.0  0.81448  0.81081  0.55377  1.0000
  C  Sn44      1.0  0.83542  0.80009  0.59168  1.0000
  C   C291      1.0  0.75479  0.80009  0.63266  1.0000
  C   C292      1.0  0.65412  0.81060  0.63631  1.0000
  H   H163      1.0  0.55562  0.82930  0.60172  1.0000
  O  Te43      1.0  0.89353  0.81105  0.51244  1.0000
  O  Te44      1.0  0.93554  0.78952  0.58860  1.0000
  H   H164      1.0  0.59214  0.81053  0.66813  1.0000
  Mg  Mg22      1.0  0.01730  0.79436  0.52507  1.0000
  C   C293      1.0  0.69546  0.32634  0.40477  1.0000
  C   C294      1.0  0.73443  0.32213  0.45206  1.0000
  C  Sn45      1.0  0.79014  0.30789  0.45998  1.0000
  C  Sn46      1.0  0.80706  0.29771  0.41972  1.0000
  C   C295      1.0  0.76784  0.30204  0.37254  1.0000
  C   C296      1.0  0.71216  0.31631  0.36504  1.0000
  H   H165      1.0  0.65244  0.33738  0.39896  1.0000
  O  Te45      1.0  0.82848  0.30386  0.50747  1.0000
  O  Te46      1.0  0.86252  0.28342  0.42659  1.0000
  H   H166      1.0  0.68208  0.31957  0.32841  1.0000
  Mg  Mg23      1.0  0.89926  0.28313  0.49820  1.0000
  C   C297      1.0  0.82909  0.35669  0.46050  1.0000
  C   C298      1.0  0.79379  0.34694  0.49841  1.0000
  C  Sn47      1.0  0.74105  0.35280  0.54172  1.0000
  C  Sn48      1.0  0.72339  0.36874  0.54707  1.0000
  C   C299      1.0  0.75892  0.37840  0.50892  1.0000
  C   C300      1.0  0.81166  0.37240  0.46574  1.0000
  H   H167      1.0  0.86982  0.35205  0.42709  1.0000
  O  Te47      1.0  0.70636  0.34290  0.57924  1.0000
  O  Te48      1.0  0.67084  0.37490  0.58996  1.0000
  H   H168      1.0  0.83889  0.37996  0.43638  1.0000
  Mg  Mg24      1.0  0.63861  0.35676  0.63071  1.0000
