data_image0
_chemical_formula_structural       H72C132N12C2Sn2C2HTe2HMgC2Sn2C2HTe2HMgC2Sn2C2HTe2HMgC2Sn2C2HTe2HMgC2Sn2C2HTe2HMgC2Sn2C2HTe2HMgC2Sn2C2HTe2HMgC2Sn2C2HTe2HMgC2Sn2C2HTe2HMgC2Sn2C2HTe2HMgC2Sn2C2HTe2HMgC2Sn2C2HTe2HMg
_chemical_formula_sum              "H96 C180 N12 Sn24 Te24 Mg12"
_cell_length_a       53.3831
_cell_length_b       53.6499
_cell_length_c       8.03839
_cell_angle_alpha    98.5788
_cell_angle_beta     101.134
_cell_angle_gamma    119.79

_symmetry_space_group_name_H-M    'P1'
_space_group_IT_number       1

loop_
  _space_group_symop_operation_xyz
  'x, y, z'

loop_
  _atom_site_type_symbol
  _atom_site_label
  _atom_site_symmetry_multiplicity
  _atom_site_fract_x
  _atom_site_fract_y
  _atom_site_fract_z
  _atom_site_occupancy
  H   H1        1.0  0.38396  0.82040  0.07701  1.0000
  H   H2        1.0  0.16640  0.55086  0.16501  1.0000
  H   H3        1.0  0.44325  0.61534  0.12888  1.0000
  H   H4        1.0  0.60313  0.16365  0.13228  1.0000
  H   H5        1.0  0.82365  0.43723  0.15842  1.0000
  H   H6        1.0  0.55319  0.38328  0.14881  1.0000
  H   H7        1.0  0.69324  0.30548  0.28971  1.0000
  H   H8        1.0  0.69492  0.38648  0.29455  1.0000
  H   H9        1.0  0.61338  0.30733  0.28251  1.0000
  H   H10       1.0  0.30729  0.69429  0.27069  1.0000
  H   H11       1.0  0.30758  0.61429  0.26026  1.0000
  H   H12       1.0  0.38856  0.69577  0.27969  1.0000
  H   H13       1.0  0.60155  0.27290  0.39743  1.0000
  H   H14       1.0  0.74037  0.33442  0.40818  1.0000
  H   H15       1.0  0.67413  0.40327  0.50688  1.0000
  H   H16       1.0  0.40789  0.74302  0.46544  1.0000
  H   H17       1.0  0.57362  0.21956  0.39415  1.0000
  H   H18       1.0  0.79372  0.36074  0.40548  1.0000
  H   H19       1.0  0.64912  0.43213  0.50809  1.0000
  H   H20       1.0  0.43441  0.79689  0.47317  1.0000
  H   H21       1.0  0.63860  0.20846  0.20729  1.0000
  H   H22       1.0  0.78067  0.42186  0.16835  1.0000
  H   H23       1.0  0.57295  0.36068  0.07319  1.0000
  H   H24       1.0  0.35364  0.77921  0.10288  1.0000
  H   H25       1.0  0.66503  0.26036  0.19754  1.0000
  H   H26       1.0  0.72788  0.39541  0.16514  1.0000
  H   H27       1.0  0.59729  0.33200  0.07427  1.0000
  H   H28       1.0  0.32736  0.72622  0.09748  1.0000
  H   H29       1.0  0.13906  0.59569  0.38682  1.0000
  H   H30       1.0  0.41065  0.54194  0.23951  1.0000
  H   H31       1.0  0.54282  0.13492  0.35996  1.0000
  H   H32       1.0  0.08575  0.57305  0.39647  1.0000
  H   H33       1.0  0.43465  0.51211  0.24321  1.0000
  H   H34       1.0  0.51360  0.08166  0.36672  1.0000
  H   H35       1.0  0.06176  0.48756  0.07998  1.0000
  H   H36       1.0  0.51012  0.58157  0.12632  1.0000
  H   H37       1.0  0.56984  0.06380  0.11652  1.0000
  H   H38       1.0  0.11494  0.51015  0.07346  1.0000
  H   H39       1.0  0.48566  0.61068  0.11817  1.0000
  H   H40       1.0  0.59779  0.11641  0.10258  1.0000
  H   H41       1.0  0.38527  0.82265  0.58699  1.0000
  H   H42       1.0  0.16295  0.55231  0.61692  1.0000
  H   H43       1.0  0.43330  0.60590  0.60754  1.0000
  H   H44       1.0  0.61414  0.16696  0.66985  1.0000
  H   H45       1.0  0.82258  0.44078  0.64488  1.0000
  H   H46       1.0  0.54666  0.37639  0.64799  1.0000
  H   H47       1.0  0.69461  0.30847  0.78198  1.0000
  H   H48       1.0  0.69273  0.38782  0.78827  1.0000
  H   H49       1.0  0.61291  0.30658  0.77279  1.0000
  H   H50       1.0  0.30797  0.69633  0.77443  1.0000
  H   H51       1.0  0.30626  0.61552  0.76743  1.0000
  H   H52       1.0  0.38818  0.69565  0.78298  1.0000
  H   H53       1.0  0.60495  0.27374  0.90858  1.0000
  H   H54       1.0  0.66959  0.40150  0.00476  1.0000
  H   H55       1.0  0.40792  0.74352  0.97177  1.0000
  H   H56       1.0  0.57904  0.22053  0.90866  1.0000
  H   H57       1.0  0.64256  0.42842  0.00554  1.0000
  H   H58       1.0  0.43544  0.79719  0.97439  1.0000
  H   H59       1.0  0.64073  0.21050  0.67529  1.0000
  H   H60       1.0  0.56971  0.35780  0.55332  1.0000
  H   H61       1.0  0.35567  0.78009  0.59667  1.0000
  H   H62       1.0  0.66566  0.26250  0.66998  1.0000
  H   H63       1.0  0.59626  0.33111  0.55376  1.0000
  H   H64       1.0  0.32870  0.72717  0.59245  1.0000
  H   H65       1.0  0.14058  0.59438  0.91256  1.0000
  H   H66       1.0  0.54397  0.13497  0.81522  1.0000
  H   H67       1.0  0.08785  0.57210  0.93160  1.0000
  H   H68       1.0  0.51308  0.08133  0.81227  1.0000
  H   H69       1.0  0.05940  0.48971  0.55431  1.0000
  H   H70       1.0  0.57796  0.06628  0.64906  1.0000
  H   H71       1.0  0.11189  0.51217  0.53589  1.0000
  H   H72       1.0  0.60811  0.11949  0.64846  1.0000
  C   C1        1.0  0.40514  0.83384  0.18859  1.0000
  C   C2        1.0  0.16130  0.56719  0.22095  1.0000
  C   C3        1.0  0.43319  0.59628  0.18364  1.0000
  C   C4        1.0  0.58890  0.15969  0.22000  1.0000
  C   C5        1.0  0.83505  0.42743  0.22494  1.0000
  C   C6        1.0  0.56977  0.40690  0.22538  1.0000
  C   C7        1.0  0.68180  0.31748  0.28910  1.0000
  C   C8        1.0  0.68292  0.36297  0.29119  1.0000
  C   C9        1.0  0.63698  0.31835  0.28514  1.0000
  C   C10       1.0  0.31934  0.68286  0.27099  1.0000
  C   C11       1.0  0.31963  0.63784  0.26455  1.0000
  C   C12       1.0  0.36492  0.68342  0.27600  1.0000
  C   C13       1.0  0.69785  0.34756  0.28812  1.0000
  C   C14       1.0  0.65253  0.34859  0.28847  1.0000
  C   C15       1.0  0.65149  0.30247  0.28940  1.0000
  C   C16       1.0  0.30404  0.65257  0.26757  1.0000
  C   C17       1.0  0.35027  0.65293  0.26946  1.0000
  C   C18       1.0  0.34977  0.69856  0.27467  1.0000
  C   C19       1.0  0.63526  0.27097  0.29405  1.0000
  C   C20       1.0  0.72963  0.36271  0.28606  1.0000
  C   C21       1.0  0.63742  0.36540  0.29150  1.0000
  C   C22       1.0  0.36573  0.73046  0.27855  1.0000
  C   C23       1.0  0.60910  0.25863  0.34827  1.0000
  C   C24       1.0  0.74875  0.35306  0.35112  1.0000
  C   C25       1.0  0.65196  0.39398  0.41184  1.0000
  C   C26       1.0  0.39620  0.75080  0.38303  1.0000
  C   C27       1.0  0.59342  0.22880  0.34839  1.0000
  C   C28       1.0  0.77882  0.36787  0.35187  1.0000
  C   C29       1.0  0.63812  0.41015  0.41374  1.0000
  C   C30       1.0  0.41110  0.78095  0.38883  1.0000
  C   C31       1.0  0.60323  0.20985  0.29473  1.0000
  C   C32       1.0  0.79128  0.39299  0.28713  1.0000
  C   C33       1.0  0.60919  0.39842  0.29471  1.0000
  C   C34       1.0  0.39641  0.79188  0.28699  1.0000
  C   C35       1.0  0.62990  0.22223  0.24537  1.0000
  C   C36       1.0  0.77228  0.40288  0.22274  1.0000
  C   C37       1.0  0.59464  0.36983  0.17285  1.0000
  C   C38       1.0  0.36575  0.77159  0.18332  1.0000
  C   C39       1.0  0.64526  0.25196  0.24355  1.0000
  C   C40       1.0  0.74224  0.38794  0.22201  1.0000
  C   C41       1.0  0.60844  0.35362  0.17281  1.0000
  C   C42       1.0  0.35084  0.74161  0.18066  1.0000
  C   C43       1.0  0.13048  0.55449  0.22967  1.0000
  C   C44       1.0  0.44657  0.57830  0.18021  1.0000
  C   C45       1.0  0.57231  0.12917  0.23239  1.0000
  C   C46       1.0  0.12185  0.57213  0.31962  1.0000
  C   C47       1.0  0.43222  0.55013  0.21319  1.0000
  C   C48       1.0  0.54835  0.11908  0.30652  1.0000
  C   C49       1.0  0.09231  0.55960  0.32441  1.0000
  C   C50       1.0  0.44554  0.53362  0.21505  1.0000
  C   C51       1.0  0.53218  0.08958  0.31024  1.0000
  C   C52       1.0  0.07013  0.52880  0.23760  1.0000
  C   C53       1.0  0.47413  0.54492  0.18609  1.0000
  C   C54       1.0  0.53990  0.06925  0.24270  1.0000
  C   C55       1.0  0.07876  0.51112  0.14747  1.0000
  C   C56       1.0  0.48841  0.57302  0.15117  1.0000
  C   C57       1.0  0.56416  0.07945  0.17057  1.0000
  C   C58       1.0  0.10851  0.52384  0.14485  1.0000
  C   C59       1.0  0.47460  0.58919  0.14676  1.0000
  C   C60       1.0  0.57977  0.10889  0.16374  1.0000
  C   C61       1.0  0.47646  0.95805  0.24822  1.0000
  C   C62       1.0  0.04021  0.51593  0.24434  1.0000
  C   C63       1.0  0.48787  0.52833  0.19448  1.0000
  C   C64       1.0  0.52351  0.03938  0.24807  1.0000
  C   C65       1.0  0.95910  0.48136  0.25923  1.0000
  C   C66       1.0  0.52202  0.48089  0.22484  1.0000
  C   C67       1.0  0.49201  0.98453  0.25211  1.0000
  C   C68       1.0  0.01404  0.50464  0.25016  1.0000
  C   C69       1.0  0.49918  0.51324  0.20510  1.0000
  C   C70       1.0  0.50866  0.01328  0.25233  1.0000
  C   C71       1.0  0.98535  0.49241  0.25517  1.0000
  C   C72       1.0  0.51127  0.49648  0.21577  1.0000
  C   C73       1.0  0.40711  0.83529  0.69365  1.0000
  C   C74       1.0  0.15984  0.56771  0.70423  1.0000
  C   C75       1.0  0.42549  0.58947  0.68295  1.0000
  C   C76       1.0  0.59609  0.16186  0.73122  1.0000
  C   C77       1.0  0.83445  0.43169  0.71516  1.0000
  C   C78       1.0  0.56251  0.40028  0.72162  1.0000
  C   C79       1.0  0.68247  0.31979  0.78119  1.0000
  C   C80       1.0  0.68158  0.36428  0.78378  1.0000
  C   C81       1.0  0.63655  0.31850  0.77611  1.0000
  C   C82       1.0  0.31950  0.68437  0.77472  1.0000
  C   C83       1.0  0.31881  0.63896  0.77017  1.0000
  C   C84       1.0  0.36457  0.68372  0.77996  1.0000
  C   C85       1.0  0.69756  0.34992  0.78054  1.0000
  C   C86       1.0  0.65109  0.34871  0.77913  1.0000
  C   C87       1.0  0.65222  0.30378  0.78148  1.0000
  C   C88       1.0  0.30372  0.65412  0.77206  1.0000
  C   C89       1.0  0.34936  0.65327  0.77475  1.0000
  C   C90       1.0  0.34992  0.69940  0.77789  1.0000
  C   C91       1.0  0.63722  0.27239  0.78756  1.0000
  C   C92       1.0  0.63473  0.36428  0.78029  1.0000
  C   C93       1.0  0.36635  0.73123  0.78004  1.0000
  C   C94       1.0  0.61236  0.25977  0.85283  1.0000
  C   C95       1.0  0.64779  0.39209  0.90541  1.0000
  C   C96       1.0  0.39672  0.75139  0.88649  1.0000
  C   C97       1.0  0.59779  0.22996  0.85407  1.0000
  C   C98       1.0  0.63278  0.40710  0.90726  1.0000
  C   C99       1.0  0.41211  0.78144  0.88997  1.0000
  C   C100      1.0  0.60730  0.21130  0.78933  1.0000
  C   C101      1.0  0.60402  0.39475  0.78429  1.0000
  C   C102      1.0  0.39797  0.79258  0.78569  1.0000
  C   C103      1.0  0.63266  0.22405  0.72763  1.0000
  C   C104      1.0  0.59109  0.36708  0.65637  1.0000
  C   C105      1.0  0.36738  0.77245  0.68011  1.0000
  C   C106      1.0  0.64711  0.25381  0.72649  1.0000
  C   C107      1.0  0.60614  0.35206  0.65595  1.0000
  C   C108      1.0  0.35203  0.74249  0.67825  1.0000
  C   C109      1.0  0.12964  0.55482  0.72308  1.0000
  C   C110      1.0  0.57818  0.13086  0.73431  1.0000
  C   C111      1.0  0.12254  0.57158  0.83477  1.0000
  C   C112      1.0  0.55104  0.11963  0.77888  1.0000
  C   C113      1.0  0.09334  0.55920  0.84521  1.0000
  C   C114      1.0  0.53389  0.08988  0.77645  1.0000
  C   C115      1.0  0.07003  0.52938  0.74360  1.0000
  C   C116      1.0  0.54346  0.07012  0.73063  1.0000
  C   C117      1.0  0.07725  0.51244  0.63377  1.0000
  C   C118      1.0  0.57065  0.08136  0.68584  1.0000
  C   C119      1.0  0.10663  0.52507  0.62428  1.0000
  C   C120      1.0  0.58750  0.11117  0.68662  1.0000
  C   C121      1.0  0.47961  0.95972  0.75316  1.0000
  C   C122      1.0  0.04015  0.51709  0.75075  1.0000
  C   C123      1.0  0.47803  0.51964  0.70321  1.0000
  C   C124      1.0  0.52654  0.04022  0.73571  1.0000
  C   C125      1.0  0.95868  0.48543  0.75261  1.0000
  C   C126      1.0  0.51156  0.47154  0.72263  1.0000
  C   C127      1.0  0.49507  0.98590  0.75079  1.0000
  C   C128      1.0  0.01392  0.50679  0.75358  1.0000
  C   C129      1.0  0.48886  0.50409  0.70947  1.0000
  C   C130      1.0  0.51169  0.01437  0.74478  1.0000
  C   C131      1.0  0.98511  0.49559  0.75425  1.0000
  C   C132      1.0  0.50073  0.48710  0.71667  1.0000
  N   N1        1.0  0.82168  0.40568  0.29274  1.0000
  N   N2        1.0  0.59785  0.41703  0.30556  1.0000
  N   N3        1.0  0.58638  0.18043  0.30433  1.0000
  N   N4        1.0  0.18115  0.59578  0.27572  1.0000
  N   N5        1.0  0.41114  0.58995  0.24958  1.0000
  N   N6        1.0  0.41384  0.82245  0.30015  1.0000
  N   N7        1.0  0.82147  0.41035  0.78637  1.0000
  N   N8        1.0  0.59106  0.41184  0.79770  1.0000
  N   N9        1.0  0.59054  0.18158  0.79507  1.0000
  N   N10       1.0  0.18111  0.59550  0.78407  1.0000
  N   N11       1.0  0.40562  0.58587  0.76316  1.0000
  N   N12       1.0  0.41596  0.82313  0.79863  1.0000
  C   C133      1.0  0.25615  0.65250  0.38184  1.0000
  C   C134      1.0  0.27051  0.64099  0.29934  1.0000
  C  Sn1       1.0  0.25363  0.61183  0.18531  1.0000
  C  Sn2       1.0  0.22180  0.59392  0.15352  1.0000
  C   C135      1.0  0.20764  0.60565  0.23661  1.0000
  C   C136      1.0  0.22475  0.63485  0.35051  1.0000
  H   H73       1.0  0.26938  0.67510  0.46990  1.0000
  O  Te1       1.0  0.26834  0.60068  0.10402  1.0000
  O  Te2       1.0  0.20439  0.56471  0.04012  1.0000
  H   H74       1.0  0.21362  0.64376  0.41428  1.0000
  Mg  Mg1       1.0  0.28824  0.60831  0.96046  1.0000
  C   C137      1.0  0.47275  0.90911  0.85897  1.0000
  C   C138      1.0  0.46600  0.92597  0.76401  1.0000
  C  Sn3       1.0  0.43717  0.91287  0.64296  1.0000
  C  Sn4       1.0  0.41473  0.88234  0.61682  1.0000
  C   C139      1.0  0.42169  0.86568  0.71256  1.0000
  C   C140      1.0  0.45061  0.87900  0.83332  1.0000
  H   H75       1.0  0.49512  0.91943  0.95248  1.0000
  O  Te3       1.0  0.43082  0.93003  0.54913  1.0000
  O  Te4       1.0  0.38573  0.86869  0.49671  1.0000
  H   H76       1.0  0.45582  0.86595  0.90691  1.0000
  Mg  Mg2       1.0  0.38801  0.90137  0.40021  1.0000
  C   C141      1.0  0.47182  0.57956  0.63667  1.0000
  C   C142      1.0  0.44426  0.57305  0.66189  1.0000
  C  Sn5       1.0  0.42713  0.54791  0.71630  1.0000
  C  Sn6       1.0  0.43785  0.52898  0.74595  1.0000
  C   C143      1.0  0.46546  0.53570  0.72047  1.0000
  C   C144      1.0  0.48241  0.56091  0.66596  1.0000
  H   H77       1.0  0.48494  0.59908  0.59459  1.0000
  O  Te5       1.0  0.39964  0.54173  0.74081  1.0000
  O  Te6       1.0  0.42119  0.50371  0.80044  1.0000
  H   H78       1.0  0.50376  0.56596  0.64656  1.0000
  Mg  Mg3       1.0  0.38510  0.50468  0.81588  1.0000
  C   C145      1.0  0.76390  0.40550  0.70153  1.0000
  C   C146      1.0  0.78723  0.40156  0.77393  1.0000
  C  Sn7       1.0  0.78117  0.37786  0.84681  1.0000
  C  Sn8       1.0  0.75117  0.35775  0.84697  1.0000
  C   C147      1.0  0.72798  0.36187  0.77410  1.0000
  C   C148      1.0  0.73430  0.38567  0.70157  1.0000
  H   H79       1.0  0.76878  0.42390  0.64532  1.0000
  O  Te7       1.0  0.80476  0.37426  0.91865  1.0000
  O  Te8       1.0  0.74448  0.33386  0.91888  1.0000
  H   H80       1.0  0.71622  0.38870  0.64542  1.0000
  Mg  Mg4       1.0  0.73088  0.28954  0.00124  1.0000
  C   C149      1.0  0.46040  0.89146  0.34742  1.0000
  C   C150      1.0  0.43028  0.87020  0.24461  1.0000
  C  Sn9       1.0  0.41435  0.87802  0.12725  1.0000
  C  Sn10      1.0  0.42891  0.90770  0.11281  1.0000
  C   C151      1.0  0.45906  0.92881  0.21616  1.0000
  C   C152      1.0  0.47478  0.92074  0.33321  1.0000
  H   H81       1.0  0.47257  0.88522  0.43792  1.0000
  O  Te9       1.0  0.38426  0.85650  0.02556  1.0000
  O  Te10      1.0  0.46695  0.96488  0.99652  1.0000
  H   H82       1.0  0.49811  0.93720  0.41272  1.0000
  Mg  Mg5       1.0  0.42624  0.92756  0.88608  1.0000
  C   C153      1.0  0.22663  0.59333  0.65114  1.0000
  C   C154      1.0  0.21279  0.60304  0.75137  1.0000
  C  Sn11      1.0  0.22899  0.63245  0.86135  1.0000
  C  Sn12      1.0  0.25961  0.65246  0.87084  1.0000
  C   C155      1.0  0.27324  0.64254  0.76994  1.0000
  C   C156      1.0  0.25682  0.61306  0.66036  1.0000
  H   H83       1.0  0.21392  0.57052  0.56628  1.0000
  O  Te11      1.0  0.21483  0.64178  0.96066  1.0000
  O  Te12      1.0  0.27632  0.68198  0.97963  1.0000
  H   H84       1.0  0.26753  0.60555  0.58268  1.0000
  Mg  Mg6       1.0  0.19362  0.63540  0.08950  1.0000
  C   C157      1.0  0.50585  0.41620  0.60378  1.0000
  C   C158      1.0  0.51838  0.44549  0.70632  1.0000
  C  Sn13      1.0  0.54825  0.46213  0.81973  1.0000
  C  Sn14      1.0  0.56585  0.44915  0.83036  1.0000
  C   C159      1.0  0.55313  0.41984  0.72713  1.0000
  C   C160      1.0  0.52321  0.40338  0.61413  1.0000
  H   H85       1.0  0.48271  0.40347  0.51626  1.0000
  O  Te13      1.0  0.56040  0.49137  0.92130  1.0000
  O  Te14      1.0  0.59577  0.46529  0.94256  1.0000
  H   H86       1.0  0.51353  0.38071  0.53467  1.0000
  Mg  Mg7       1.0  0.54878  0.45558  0.05454  1.0000
  C   C161      1.0  0.57029  0.47335  0.35476  1.0000
  C   C162      1.0  0.54232  0.46677  0.25158  1.0000
  C  Sn15      1.0  0.52074  0.43793  0.13856  1.0000
  C  Sn16      1.0  0.52735  0.41530  0.12898  1.0000
  C   C163      1.0  0.55539  0.42210  0.23284  1.0000
  C   C164      1.0  0.57682  0.45103  0.34544  1.0000
  H   H87       1.0  0.58687  0.49573  0.44196  1.0000
  O  Te15      1.0  0.49291  0.43175  0.03634  1.0000
  O  Te16      1.0  0.50619  0.38628  0.01719  1.0000
  H   H88       1.0  0.59847  0.45611  0.42540  1.0000
  Mg  Mg8       1.0  0.52489  0.43759  0.90402  1.0000
  C   C165      1.0  0.89037  0.42827  0.30804  1.0000
  C   C166      1.0  0.87088  0.43805  0.26048  1.0000
  C  Sn17      1.0  0.88066  0.46350  0.20068  1.0000
  C  Sn18      1.0  0.91052  0.47940  0.18836  1.0000
  C   C167      1.0  0.92984  0.46942  0.23614  1.0000
  C   C168      1.0  0.91982  0.44393  0.29586  1.0000
  H   H89       1.0  0.88262  0.40854  0.35416  1.0000
  O  Te17      1.0  0.86090  0.47297  0.15376  1.0000
  O  Te18      1.0  0.92088  0.50489  0.12896  1.0000
  H   H90       1.0  0.93491  0.43635  0.33257  1.0000
  Mg  Mg9       1.0  0.88550  0.50899  0.08043  1.0000
  C   C169      1.0  0.35107  0.60094  0.80263  1.0000
  C   C170      1.0  0.36163  0.63005  0.79125  1.0000
  C  Sn19      1.0  0.38914  0.64661  0.75715  1.0000
  C  Sn20      1.0  0.40633  0.63372  0.73402  1.0000
  C   C171      1.0  0.39555  0.60457  0.74553  1.0000
  C   C172      1.0  0.36801  0.58821  0.77976  1.0000
  H   H91       1.0  0.32975  0.58827  0.82902  1.0000
  O  Te19      1.0  0.39936  0.67567  0.74628  1.0000
  O  Te20      1.0  0.43389  0.64976  0.69974  1.0000
  H   H92       1.0  0.35983  0.56566  0.78845  1.0000
  Mg  Mg10      1.0  0.43830  0.68858  0.69716  1.0000
  C   C173      1.0  0.90691  0.44155  0.81952  1.0000
  C   C174      1.0  0.92450  0.46499  0.75418  1.0000
  C  Sn21      1.0  0.91243  0.47996  0.67724  1.0000
  C  Sn22      1.0  0.88219  0.47127  0.66573  1.0000
  C   C175      1.0  0.86479  0.44780  0.73160  1.0000
  C   C176      1.0  0.87709  0.43296  0.80828  1.0000
  H   H93       1.0  0.91643  0.43008  0.87894  1.0000
  O  Te21      1.0  0.93031  0.50333  0.61257  1.0000
  O  Te22      1.0  0.86957  0.48586  0.58953  1.0000
  H   H94       1.0  0.86348  0.41483  0.85896  1.0000
  Mg  Mg11      1.0  0.90295  0.51635  0.52023  1.0000
  C   C177      1.0  0.36571  0.59626  0.32025  1.0000
  C   C178      1.0  0.39032  0.60277  0.25768  1.0000
  C  Sn23      1.0  0.40488  0.62877  0.20525  1.0000
  C  Sn24      1.0  0.39457  0.64858  0.21585  1.0000
  C   C179      1.0  0.36994  0.64188  0.27875  1.0000
  C   C180      1.0  0.35553  0.61580  0.33081  1.0000
  H   H95       1.0  0.35456  0.57609  0.36062  1.0000
  O  Te23      1.0  0.42943  0.63492  0.14299  1.0000
  O  Te24      1.0  0.40872  0.67473  0.16438  1.0000
  H   H96       1.0  0.33649  0.61078  0.37936  1.0000
  Mg  Mg12      1.0  0.44126  0.67334  0.08843  1.0000
