data_image0
_chemical_formula_structural       H60C112N16SnCSn2CSnTe4Mg2SnCSn2CSnTe4Mg2SnCSn2CSnTe4Mg2SnCSn2CSnTe4Mg2SnCSn2CSnTe4Mg2SnCSn2CSnTe4Mg2SnCSn2CSnTe4Mg2SnCSn2CSnTe4Mg2
_chemical_formula_sum              "H60 C128 N16 Sn32 Te32 Mg16"
_cell_length_a       35.0931
_cell_length_b       35.1016
_cell_length_c       8.15403
_cell_angle_alpha    88.7904
_cell_angle_beta     91.1915
_cell_angle_gamma    91.1052

_symmetry_space_group_name_H-M    'P1'
_space_group_IT_number       1

loop_
  _space_group_symop_operation_xyz
  'x, y, z'

loop_
  _atom_site_type_symbol
  _atom_site_label
  _atom_site_symmetry_multiplicity
  _atom_site_fract_x
  _atom_site_fract_y
  _atom_site_fract_z
  _atom_site_occupancy
  H   H1        1.0  0.55471  0.09529  0.43043  1.0000
  H   H2        1.0  0.55647  0.16561  0.45607  1.0000
  H   H3        1.0  0.45932  0.17487  0.12811  1.0000
  H   H4        1.0  0.45669  0.10392  0.10481  1.0000
  H   H5        1.0  0.46158  0.77429  0.33436  1.0000
  H   H6        1.0  0.53028  0.22630  0.40554  1.0000
  H   H7        1.0  0.56644  0.37348  0.11641  1.0000
  H   H8        1.0  0.43258  0.63009  0.12797  1.0000
  H   H9        1.0  0.62330  0.42531  0.13978  1.0000
  H   H10       1.0  0.37589  0.57751  0.12997  1.0000
  H   H11       1.0  0.37050  0.43087  0.37012  1.0000
  H   H12       1.0  0.63033  0.56947  0.37239  1.0000
  H   H13       1.0  0.42101  0.37479  0.35478  1.0000
  H   H14       1.0  0.57905  0.62546  0.36240  1.0000
  H   H15       1.0  0.47624  0.47891  0.22126  1.0000
  H   H16       1.0  0.52242  0.52204  0.23747  1.0000
  H   H17       1.0  0.44133  0.35528  0.09900  1.0000
  H   H18       1.0  0.43945  0.28441  0.10022  1.0000
  H   H19       1.0  0.54552  0.28316  0.37446  1.0000
  H   H20       1.0  0.54608  0.35304  0.37912  1.0000
  H   H21       1.0  0.64238  0.44578  0.42874  1.0000
  H   H22       1.0  0.71322  0.44326  0.43827  1.0000
  H   H23       1.0  0.71851  0.54112  0.11123  1.0000
  H   H24       1.0  0.64890  0.54387  0.10725  1.0000
  H   H25       1.0  0.09345  0.44517  0.06985  1.0000
  H   H26       1.0  0.90805  0.55258  0.12211  1.0000
  H   H27       1.0  0.16368  0.44559  0.04013  1.0000
  H   H28       1.0  0.83764  0.55903  0.10372  1.0000
  H   H29       1.0  0.17464  0.54083  0.36238  1.0000
  H   H30       1.0  0.82314  0.45425  0.38030  1.0000
  H   H31       1.0  0.10402  0.54177  0.38750  1.0000
  H   H32       1.0  0.89389  0.44730  0.39810  1.0000
  H   H33       1.0  0.22515  0.47648  0.07669  1.0000
  H   H34       1.0  0.77549  0.53837  0.16731  1.0000
  H   H35       1.0  0.46319  0.77420  0.81726  1.0000
  H   H36       1.0  0.53706  0.22655  0.85260  1.0000
  H   H37       1.0  0.56602  0.37153  0.62849  1.0000
  H   H38       1.0  0.43098  0.62960  0.62780  1.0000
  H   H39       1.0  0.62267  0.42389  0.64313  1.0000
  H   H40       1.0  0.37396  0.57785  0.63636  1.0000
  H   H41       1.0  0.36952  0.42960  0.86612  1.0000
  H   H42       1.0  0.62869  0.56818  0.87671  1.0000
  H   H43       1.0  0.42086  0.37392  0.85117  1.0000
  H   H44       1.0  0.57751  0.62424  0.86582  1.0000
  H   H45       1.0  0.47448  0.47833  0.71178  1.0000
  H   H46       1.0  0.52144  0.52098  0.73264  1.0000
  H   H47       1.0  0.55506  0.64355  0.59047  1.0000
  H   H48       1.0  0.44358  0.35529  0.57479  1.0000
  H   H49       1.0  0.55987  0.71438  0.58439  1.0000
  H   H50       1.0  0.44109  0.28434  0.57471  1.0000
  H   H51       1.0  0.46246  0.71832  0.89568  1.0000
  H   H52       1.0  0.53791  0.28214  0.90712  1.0000
  H   H53       1.0  0.45740  0.64851  0.89623  1.0000
  H   H54       1.0  0.54070  0.35199  0.90207  1.0000
  H   H55       1.0  0.08990  0.44436  0.59829  1.0000
  H   H56       1.0  0.16003  0.44146  0.56594  1.0000
  H   H57       1.0  0.17512  0.54518  0.83339  1.0000
  H   H58       1.0  0.10458  0.54920  0.86087  1.0000
  H   H59       1.0  0.22239  0.46819  0.59759  1.0000
  H   H60       1.0  0.77370  0.53840  0.64086  1.0000
  C   C1        1.0  0.50361  0.98165  0.23797  1.0000
  C   C2        1.0  0.50441  0.01998  0.24128  1.0000
  C   C3        1.0  0.50284  0.94658  0.24051  1.0000
  C   C4        1.0  0.50481  0.05493  0.25063  1.0000
  C   C5        1.0  0.50586  0.09486  0.26436  1.0000
  C   C6        1.0  0.53420  0.11278  0.36327  1.0000
  C   C7        1.0  0.53494  0.15212  0.37753  1.0000
  C   C8        1.0  0.50807  0.17495  0.29285  1.0000
  C   C9        1.0  0.47986  0.15706  0.19382  1.0000
  C   C10       1.0  0.47854  0.11777  0.18042  1.0000
  C   C11       1.0  0.48856  0.78482  0.28180  1.0000
  C   C12       1.0  0.50992  0.21609  0.31114  1.0000
  C   C13       1.0  0.56490  0.40227  0.16016  1.0000
  C   C14       1.0  0.43423  0.60033  0.16369  1.0000
  C   C15       1.0  0.59375  0.42865  0.17087  1.0000
  C   C16       1.0  0.40551  0.57371  0.16456  1.0000
  C   C17       1.0  0.57696  0.46321  0.23051  1.0000
  C   C18       1.0  0.42238  0.53810  0.22132  1.0000
  C   C19       1.0  0.53081  0.42069  0.21635  1.0000
  C   C20       1.0  0.46845  0.58082  0.22008  1.0000
  C   C21       1.0  0.39973  0.43335  0.33153  1.0000
  C   C22       1.0  0.60048  0.56716  0.33814  1.0000
  C   C23       1.0  0.42575  0.40462  0.32494  1.0000
  C   C24       1.0  0.57424  0.59584  0.33293  1.0000
  C   C25       1.0  0.46113  0.42082  0.27069  1.0000
  C   C26       1.0  0.53830  0.57988  0.28062  1.0000
  C   C27       1.0  0.41794  0.46814  0.27861  1.0000
  C   C28       1.0  0.58157  0.53264  0.28892  1.0000
  C   C29       1.0  0.49531  0.40167  0.24096  1.0000
  C   C30       1.0  0.50405  0.59937  0.24871  1.0000
  C   C31       1.0  0.40108  0.50404  0.25133  1.0000
  C   C32       1.0  0.59814  0.49701  0.26359  1.0000
  C   C33       1.0  0.49371  0.35962  0.24036  1.0000
  C   C34       1.0  0.64025  0.49534  0.26932  1.0000
  C   C35       1.0  0.46346  0.33936  0.16364  1.0000
  C   C36       1.0  0.46242  0.29979  0.16307  1.0000
  C   C37       1.0  0.49176  0.27836  0.23808  1.0000
  C   C38       1.0  0.52219  0.29843  0.31495  1.0000
  C   C39       1.0  0.52282  0.33797  0.31692  1.0000
  C   C40       1.0  0.65921  0.46649  0.35925  1.0000
  C   C41       1.0  0.69876  0.46497  0.36464  1.0000
  C   C42       1.0  0.72138  0.49209  0.27959  1.0000
  C   C43       1.0  0.70252  0.52069  0.18635  1.0000
  C   C44       1.0  0.66298  0.52223  0.18277  1.0000
  C   C45       1.0  0.01902  0.49387  0.25800  1.0000
  C   C46       1.0  0.98074  0.49482  0.26529  1.0000
  C   C47       1.0  0.05392  0.49369  0.24591  1.0000
  C   C48       1.0  0.94573  0.49607  0.26681  1.0000
  C   C49       1.0  0.09384  0.49364  0.22944  1.0000
  C   C50       1.0  0.90578  0.49939  0.26011  1.0000
  C   C51       1.0  0.11128  0.46614  0.13291  1.0000
  C   C52       1.0  0.88936  0.53118  0.17816  1.0000
  C   C53       1.0  0.15060  0.46651  0.11679  1.0000
  C   C54       1.0  0.85003  0.53473  0.16925  1.0000
  C   C55       1.0  0.17388  0.49347  0.19889  1.0000
  C   C56       1.0  0.82571  0.50702  0.24167  1.0000
  C   C57       1.0  0.15652  0.52059  0.29656  1.0000
  C   C58       1.0  0.84212  0.47533  0.32364  1.0000
  C   C59       1.0  0.11726  0.52102  0.31073  1.0000
  C   C60       1.0  0.88135  0.47152  0.33315  1.0000
  C   C61       1.0  0.21510  0.49256  0.18129  1.0000
  C   C62       1.0  0.78464  0.51207  0.23110  1.0000
  C   C63       1.0  0.50547  0.98099  0.73505  1.0000
  C   C64       1.0  0.50522  0.01932  0.73856  1.0000
  C   C65       1.0  0.50545  0.94591  0.73590  1.0000
  C   C66       1.0  0.50433  0.05430  0.74556  1.0000
  C   C67       1.0  0.49084  0.78428  0.76969  1.0000
  C   C68       1.0  0.51107  0.21579  0.79037  1.0000
  C   C69       1.0  0.56427  0.40093  0.66425  1.0000
  C   C70       1.0  0.43251  0.60002  0.66704  1.0000
  C   C71       1.0  0.59299  0.42751  0.67122  1.0000
  C   C72       1.0  0.40355  0.57363  0.67067  1.0000
  C   C73       1.0  0.57601  0.46258  0.72449  1.0000
  C   C74       1.0  0.42042  0.53788  0.72649  1.0000
  C   C75       1.0  0.52990  0.41998  0.71315  1.0000
  C   C76       1.0  0.46679  0.58040  0.72248  1.0000
  C   C77       1.0  0.39862  0.43222  0.82579  1.0000
  C   C78       1.0  0.59893  0.56606  0.84055  1.0000
  C   C79       1.0  0.42490  0.40370  0.81854  1.0000
  C   C80       1.0  0.57267  0.59469  0.83556  1.0000
  C   C81       1.0  0.45993  0.42018  0.76221  1.0000
  C   C82       1.0  0.53684  0.57888  0.78108  1.0000
  C   C83       1.0  0.41651  0.46723  0.77271  1.0000
  C   C84       1.0  0.58024  0.53175  0.78758  1.0000
  C   C85       1.0  0.49430  0.40117  0.73554  1.0000
  C   C86       1.0  0.50273  0.59862  0.74833  1.0000
  C   C87       1.0  0.39957  0.50331  0.75205  1.0000
  C   C88       1.0  0.59712  0.49639  0.75854  1.0000
  C   C89       1.0  0.50553  0.64070  0.74211  1.0000
  C   C90       1.0  0.49265  0.35903  0.73614  1.0000
  C   C91       1.0  0.53487  0.66006  0.65717  1.0000
  C   C92       1.0  0.46409  0.33908  0.64758  1.0000
  C   C93       1.0  0.53769  0.69960  0.65358  1.0000
  C   C94       1.0  0.46264  0.29948  0.64720  1.0000
  C   C95       1.0  0.51121  0.72173  0.73503  1.0000
  C   C96       1.0  0.48955  0.27779  0.73700  1.0000
  C   C97       1.0  0.48209  0.70249  0.82273  1.0000
  C   C98       1.0  0.51775  0.29764  0.82916  1.0000
  C   C99       1.0  0.47928  0.66299  0.82459  1.0000
  C   C100      1.0  0.51932  0.33720  0.82752  1.0000
  C   C101      1.0  0.01768  0.49889  0.75946  1.0000
  C   C102      1.0  0.97940  0.49998  0.76359  1.0000
  C   C103      1.0  0.05260  0.49827  0.74997  1.0000
  C   C104      1.0  0.94438  0.50107  0.76285  1.0000
  C   C105      1.0  0.09239  0.49670  0.73359  1.0000
  C   C106      1.0  0.10860  0.46613  0.65090  1.0000
  C   C107      1.0  0.14780  0.46458  0.63346  1.0000
  C   C108      1.0  0.17223  0.49273  0.70102  1.0000
  C   C109      1.0  0.15607  0.52340  0.78254  1.0000
  C   C110      1.0  0.11693  0.52560  0.79758  1.0000
  C   C111      1.0  0.21328  0.48939  0.68550  1.0000
  C   C112      1.0  0.78327  0.51454  0.72008  1.0000
  N   N1        1.0  0.53848  0.45818  0.25150  1.0000
  N   N2        1.0  0.46094  0.54272  0.24806  1.0000
  N   N3        1.0  0.45528  0.45935  0.24818  1.0000
  N   N4        1.0  0.54383  0.54149  0.26024  1.0000
  N   N5        1.0  0.51427  0.76236  0.22907  1.0000
  N   N6        1.0  0.48879  0.23874  0.22284  1.0000
  N   N7        1.0  0.23824  0.51000  0.28171  1.0000
  N   N8        1.0  0.76090  0.48739  0.29370  1.0000
  N   N9        1.0  0.53742  0.45776  0.74306  1.0000
  N   N10       1.0  0.45898  0.54242  0.75221  1.0000
  N   N11       1.0  0.45370  0.45862  0.73882  1.0000
  N   N12       1.0  0.54250  0.54056  0.75885  1.0000
  N   N13       1.0  0.51680  0.76133  0.72335  1.0000
  N   N14       1.0  0.48552  0.23807  0.72659  1.0000
  N   N15       1.0  0.23687  0.51001  0.77199  1.0000
  N   N16       1.0  0.75998  0.49095  0.79258  1.0000
  C  Sn1       1.0  0.87137  0.46847  0.79123  1.0000
  C   C113      1.0  0.89919  0.49376  0.73075  1.0000
  C  Sn2       1.0  0.88965  0.53087  0.68272  1.0000
  C  Sn3       1.0  0.85151  0.54295  0.69549  1.0000
  C   C114      1.0  0.82372  0.51766  0.75597  1.0000
  C  Sn4       1.0  0.83323  0.48055  0.80400  1.0000
  O  Te1       1.0  0.88155  0.43151  0.83853  1.0000
  O  Te2       1.0  0.91796  0.55564  0.62257  1.0000
  O  Te3       1.0  0.84135  0.57994  0.64812  1.0000
  O  Te4       1.0  0.80495  0.45579  0.86414  1.0000
  Mg  Mg1       1.0  0.89003  0.60316  0.57387  1.0000
  Mg  Mg2       1.0  0.83285  0.40827  0.91296  1.0000
  C  Sn5       1.0  0.33042  0.52753  0.89108  1.0000
  C   C115      1.0  0.35338  0.50288  0.80613  1.0000
  C  Sn6       1.0  0.33788  0.48083  0.67976  1.0000
  C  Sn7       1.0  0.29861  0.48348  0.63732  1.0000
  C   C116      1.0  0.27567  0.50812  0.72222  1.0000
  C  Sn8       1.0  0.29115  0.53018  0.84864  1.0000
  O  Te5       1.0  0.34179  0.55412  0.01699  1.0000
  O  Te6       1.0  0.36140  0.45638  0.59664  1.0000
  O  Te7       1.0  0.28251  0.46167  0.51130  1.0000
  O  Te8       1.0  0.26765  0.55462  0.93171  1.0000
  Mg  Mg3       1.0  0.32619  0.43256  0.43417  1.0000
  Mg  Mg4       1.0  0.29809  0.58328  0.09414  1.0000
  C  Sn9       1.0  0.52883  0.87415  0.63684  1.0000
  C   C117      1.0  0.50353  0.90105  0.69249  1.0000
  C  Sn10      1.0  0.47447  0.89008  0.79909  1.0000
  C  Sn11      1.0  0.47063  0.85142  0.85124  1.0000
  C   C118      1.0  0.49593  0.82455  0.79562  1.0000
  C  Sn12      1.0  0.52499  0.83549  0.68899  1.0000
  O  Te9       1.0  0.55767  0.88576  0.53032  1.0000
  O  Te10      1.0  0.44952  0.91749  0.85303  1.0000
  O  Te11      1.0  0.44176  0.83983  0.95784  1.0000
  O  Te12      1.0  0.54994  0.80811  0.63508  1.0000
  Mg  Mg5       1.0  0.41483  0.88770  0.99743  1.0000
  Mg  Mg6       1.0  0.58465  0.83787  0.49076  1.0000
  C  Sn13      1.0  0.46920  0.88073  0.37154  1.0000
  C   C119      1.0  0.49895  0.90267  0.30501  1.0000
  C  Sn14      1.0  0.52565  0.88601  0.20549  1.0000
  C  Sn15      1.0  0.52253  0.84659  0.17168  1.0000
  C   C120      1.0  0.49279  0.82467  0.23817  1.0000
  C  Sn16      1.0  0.46608  0.84131  0.33773  1.0000
  O  Te13      1.0  0.44283  0.89799  0.47070  1.0000
  O  Te14      1.0  0.55516  0.90853  0.14042  1.0000
  O  Te15      1.0  0.54893  0.82934  0.07244  1.0000
  O  Te16      1.0  0.43658  0.81881  0.40276  1.0000
  Mg  Mg7       1.0  0.58404  0.87194  0.01228  1.0000
  Mg  Mg8       1.0  0.40767  0.85537  0.53084  1.0000
  C  Sn17      1.0  0.66718  0.46995  0.89543  1.0000
  C   C121      1.0  0.64349  0.49572  0.81184  1.0000
  C  Sn18      1.0  0.65816  0.52020  0.69048  1.0000
  C  Sn19      1.0  0.69732  0.51889  0.65176  1.0000
  C   C122      1.0  0.72099  0.49313  0.73530  1.0000
  C  Sn20      1.0  0.70634  0.46864  0.85672  1.0000
  O  Te17      1.0  0.64715  0.45055  0.01631  1.0000
  O  Te18      1.0  0.63392  0.54573  0.60863  1.0000
  O  Te19      1.0  0.71259  0.54313  0.53078  1.0000
  O  Te20      1.0  0.73055  0.44312  0.93851  1.0000
  Mg  Mg9       1.0  0.66814  0.57291  0.45350  1.0000
  Mg  Mg10      1.0  0.69162  0.42073  0.09359  1.0000
  C  Sn21      1.0  0.47033  0.67185  0.29427  1.0000
  C   C123      1.0  0.49465  0.64680  0.21892  1.0000
  C  Sn22      1.0  0.53011  0.65958  0.16307  1.0000
  C  Sn23      1.0  0.54152  0.69822  0.18305  1.0000
  C   C124      1.0  0.51722  0.72325  0.25838  1.0000
  C  Sn24      1.0  0.48174  0.71049  0.31425  1.0000
  O  Te21      1.0  0.43500  0.65845  0.34917  1.0000
  O  Te22      1.0  0.55393  0.63400  0.08807  1.0000
  O  Te23      1.0  0.57688  0.71161  0.12806  1.0000
  O  Te24      1.0  0.45793  0.73604  0.38923  1.0000
  Mg  Mg11      1.0  0.59930  0.66584  0.03373  1.0000
  Mg  Mg12      1.0  0.41257  0.70423  0.44370  1.0000
  C  Sn25      1.0  0.33238  0.53096  0.38316  1.0000
  C   C125      1.0  0.35500  0.50503  0.30371  1.0000
  C  Sn26      1.0  0.33891  0.48077  0.18645  1.0000
  C  Sn27      1.0  0.29939  0.48249  0.14769  1.0000
  C   C126      1.0  0.27679  0.50842  0.22708  1.0000
  C  Sn28      1.0  0.29285  0.53268  0.34440  1.0000
  O  Te25      1.0  0.34907  0.55494  0.49998  1.0000
  O  Te26      1.0  0.36211  0.45507  0.10870  1.0000
  O  Te27      1.0  0.28271  0.45849  0.03077  1.0000
  O  Te28      1.0  0.26968  0.55837  0.42210  1.0000
  Mg  Mg13      1.0  0.33086  0.42352  0.95821  1.0000
  Mg  Mg14      1.0  0.30564  0.58514  0.57254  1.0000
  C  Sn29      1.0  0.47753  0.12602  0.64983  1.0000
  C   C127      1.0  0.50393  0.09967  0.71057  1.0000
  C  Sn30      1.0  0.53201  0.11063  0.82492  1.0000
  C  Sn31      1.0  0.53375  0.14871  0.87979  1.0000
  C   C128      1.0  0.50736  0.17503  0.81909  1.0000
  C  Sn32      1.0  0.47926  0.16410  0.70471  1.0000
  O  Te29      1.0  0.44969  0.11443  0.53559  1.0000
  O  Te30      1.0  0.55810  0.08378  0.88382  1.0000
  O  Te31      1.0  0.56162  0.16028  0.99412  1.0000
  O  Te32      1.0  0.45319  0.19092  0.64584  1.0000
  Mg  Mg15      1.0  0.58600  0.11811  0.03823  1.0000
  Mg  Mg16      1.0  0.42053  0.16143  0.49150  1.0000
