data_image0
_chemical_formula_structural       H104C208N16C2Sn2C2HTe2HMgC2Sn2C2HTe2HMgC2Sn2C2HTe2HMgC2Sn2C2HTe2HMgC2Sn2C2HTe2HMgC2Sn2C2HTe2HMgC2Sn2C2HTe2HMgC2Sn2C2HTe2HMgC2Sn2C2HTe2HMgC2Sn2C2HTe2HMgC2Sn2C2HTe2HMgC2Sn2C2HTe2HMgC2Sn2C2HTe2HMgC2Sn2C2HTe2HMgC2Sn2C2HTe2HMgC2Sn2C2HTe2HMg
_chemical_formula_sum              "H136 C272 N16 Sn32 Te32 Mg16"
_cell_length_a       46.686
_cell_length_b       43.5384
_cell_length_c       7.92377
_cell_angle_alpha    90.535
_cell_angle_beta     94.3963
_cell_angle_gamma    89.7532

_symmetry_space_group_name_H-M    'P1'
_space_group_IT_number       1

loop_
  _space_group_symop_operation_xyz
  'x, y, z'

loop_
  _atom_site_type_symbol
  _atom_site_label
  _atom_site_symmetry_multiplicity
  _atom_site_fract_x
  _atom_site_fract_y
  _atom_site_fract_z
  _atom_site_occupancy
  H   H1        1.0  0.56399  0.97519  0.24485  1.0000
  H   H2        1.0  0.43941  0.97410  0.74425  1.0000
  H   H3        1.0  0.06294  0.47450  0.24905  1.0000
  H   H4        1.0  0.93775  0.47470  0.75261  1.0000
  H   H5        1.0  0.43869  0.03012  0.74750  1.0000
  H   H6        1.0  0.56342  0.03136  0.24712  1.0000
  H   H7        1.0  0.93836  0.53070  0.74899  1.0000
  H   H8        1.0  0.06364  0.53046  0.24416  1.0000
  H   H9        1.0  0.52804  0.88616  0.25918  1.0000
  H   H10       1.0  0.47649  0.88143  0.76598  1.0000
  H   H11       1.0  0.02389  0.38358  0.25325  1.0000
  H   H12       1.0  0.56955  0.85436  0.34947  1.0000
  H   H13       1.0  0.43527  0.84923  0.67329  1.0000
  H   H14       1.0  0.06453  0.35004  0.34113  1.0000
  H   H15       1.0  0.62458  0.91494  0.09726  1.0000
  H   H16       1.0  0.37820  0.91634  0.86691  1.0000
  H   H17       1.0  0.12209  0.41218  0.12096  1.0000
  H   H18       1.0  0.58240  0.94755  0.00831  1.0000
  H   H19       1.0  0.41998  0.94867  0.96380  1.0000
  H   H20       1.0  0.08093  0.44593  0.02969  1.0000
  H   H21       1.0  0.67824  0.15600  0.30233  1.0000
  H   H22       1.0  0.32251  0.15546  0.69768  1.0000
  H   H23       1.0  0.17858  0.65747  0.28662  1.0000
  H   H24       1.0  0.32335  0.84852  0.70279  1.0000
  H   H25       1.0  0.17607  0.34562  0.29565  1.0000
  H   H26       1.0  0.72111  0.18657  0.40743  1.0000
  H   H27       1.0  0.27955  0.18648  0.59782  1.0000
  H   H28       1.0  0.22084  0.68925  0.38751  1.0000
  H   H29       1.0  0.28102  0.81614  0.61040  1.0000
  H   H30       1.0  0.21832  0.31292  0.38673  1.0000
  H   H31       1.0  0.66770  0.24232  0.70692  1.0000
  H   H32       1.0  0.33269  0.24166  0.30146  1.0000
  H   H33       1.0  0.16679  0.74412  0.68739  1.0000
  H   H34       1.0  0.33444  0.76016  0.31248  1.0000
  H   H35       1.0  0.16437  0.25762  0.67793  1.0000
  H   H36       1.0  0.62506  0.21182  0.60279  1.0000
  H   H37       1.0  0.37531  0.21092  0.40102  1.0000
  H   H38       1.0  0.12469  0.71247  0.58699  1.0000
  H   H39       1.0  0.37640  0.79254  0.40197  1.0000
  H   H40       1.0  0.12262  0.29033  0.58894  1.0000
  H   H41       1.0  0.60472  0.16835  0.47294  1.0000
  H   H42       1.0  0.39579  0.16689  0.52797  1.0000
  H   H43       1.0  0.10539  0.66756  0.46470  1.0000
  H   H44       1.0  0.89776  0.66793  0.52284  1.0000
  H   H45       1.0  0.39645  0.83770  0.52522  1.0000
  H   H46       1.0  0.60611  0.83360  0.42007  1.0000
  H   H47       1.0  0.89423  0.33888  0.54367  1.0000
  H   H48       1.0  0.10302  0.33579  0.47072  1.0000
  H   H49       1.0  0.56261  0.96844  0.75084  1.0000
  H   H50       1.0  0.43836  0.96834  0.24719  1.0000
  H   H51       1.0  0.06204  0.46945  0.75409  1.0000
  H   H52       1.0  0.93754  0.46986  0.25256  1.0000
  H   H53       1.0  0.43828  0.02459  0.24844  1.0000
  H   H54       1.0  0.56314  0.02452  0.74693  1.0000
  H   H55       1.0  0.93820  0.52604  0.24960  1.0000
  H   H56       1.0  0.06297  0.52549  0.74810  1.0000
  H   H57       1.0  0.52408  0.87846  0.76177  1.0000
  H   H58       1.0  0.47271  0.88026  0.22406  1.0000
  H   H59       1.0  0.02488  0.38002  0.77067  1.0000
  H   H60       1.0  0.97447  0.61546  0.24404  1.0000
  H   H61       1.0  0.56575  0.84686  0.86338  1.0000
  H   H62       1.0  0.42910  0.85193  0.11967  1.0000
  H   H63       1.0  0.06739  0.34953  0.86929  1.0000
  H   H64       1.0  0.93176  0.64583  0.14677  1.0000
  H   H65       1.0  0.62185  0.90839  0.62670  1.0000
  H   H66       1.0  0.37741  0.91409  0.39274  1.0000
  H   H67       1.0  0.12144  0.41101  0.61790  1.0000
  H   H68       1.0  0.87813  0.58349  0.39687  1.0000
  H   H69       1.0  0.57971  0.94025  0.52343  1.0000
  H   H70       1.0  0.42148  0.94281  0.49774  1.0000
  H   H71       1.0  0.07843  0.44164  0.51536  1.0000
  H   H72       1.0  0.92128  0.55250  0.49236  1.0000
  H   H73       1.0  0.67765  0.13313  0.79352  1.0000
  H   H74       1.0  0.32102  0.13214  0.21041  1.0000
  H   H75       1.0  0.67434  0.86239  0.82602  1.0000
  H   H76       1.0  0.17600  0.36321  0.81184  1.0000
  H   H77       1.0  0.72129  0.16577  0.78010  1.0000
  H   H78       1.0  0.27781  0.16587  0.22478  1.0000
  H   H79       1.0  0.71929  0.83280  0.78371  1.0000
  H   H80       1.0  0.21966  0.33116  0.77453  1.0000
  H   H81       1.0  0.68291  0.23549  0.07837  1.0000
  H   H82       1.0  0.31728  0.23424  0.93227  1.0000
  H   H83       1.0  0.68477  0.75471  0.02530  1.0000
  H   H84       1.0  0.18383  0.25796  0.04975  1.0000
  H   H85       1.0  0.63981  0.20261  0.09497  1.0000
  H   H86       1.0  0.36012  0.20032  0.91565  1.0000
  H   H87       1.0  0.64021  0.78427  0.06877  1.0000
  H   H88       1.0  0.14052  0.29005  0.08925  1.0000
  H   H89       1.0  0.61005  0.15834  0.97898  1.0000
  H   H90       1.0  0.38930  0.15660  0.03114  1.0000
  H   H91       1.0  0.11085  0.65943  0.96997  1.0000
  H   H92       1.0  0.89125  0.65880  0.02361  1.0000
  H   H93       1.0  0.38785  0.83849  0.00726  1.0000
  H   H94       1.0  0.60784  0.83022  0.98400  1.0000
  H   H95       1.0  0.88671  0.33892  0.01879  1.0000
  H   H96       1.0  0.10918  0.33456  0.98857  1.0000
  H   H97       1.0  0.50189  0.89697  0.00228  1.0000
  H   H98       1.0  0.99882  0.39693  0.01017  1.0000
  H   H99       1.0  0.49989  0.10856  0.00492  1.0000
  H   H100      1.0  0.00142  0.60837  0.99527  1.0000
  H   H101      1.0  0.49930  0.89064  0.50446  1.0000
  H   H102      1.0  0.99841  0.39188  0.50945  1.0000
  H   H103      1.0  0.50012  0.10216  0.50395  1.0000
  H   H104      1.0  0.00128  0.60339  0.49656  1.0000
  C   C1        1.0  0.52607  0.93744  0.06867  1.0000
  C   C2        1.0  0.47697  0.93681  0.92849  1.0000
  C   C3        1.0  0.02405  0.43676  0.07671  1.0000
  C   C4        1.0  0.97500  0.43727  0.93590  1.0000
  C   C5        1.0  0.47602  0.06813  0.92914  1.0000
  C   C6        1.0  0.52465  0.06851  0.07449  1.0000
  C   C7        1.0  0.97673  0.56830  0.92381  1.0000
  C   C8        1.0  0.02546  0.56801  0.06806  1.0000
  C   C9        1.0  0.52529  0.97008  0.07760  1.0000
  C   C10       1.0  0.47741  0.96950  0.91785  1.0000
  C   C11       1.0  0.02404  0.46951  0.08273  1.0000
  C   C12       1.0  0.97607  0.46983  0.92347  1.0000
  C   C13       1.0  0.47684  0.03544  0.91932  1.0000
  C   C14       1.0  0.52460  0.03582  0.08036  1.0000
  C   C15       1.0  0.97690  0.53558  0.91807  1.0000
  C   C16       1.0  0.02480  0.53537  0.07760  1.0000
  C   C17       1.0  0.54719  0.98744  0.17027  1.0000
  C   C18       1.0  0.45561  0.98655  0.82299  1.0000
  C   C19       1.0  0.04632  0.48674  0.17308  1.0000
  C   C20       1.0  0.95443  0.48702  0.82823  1.0000
  C   C21       1.0  0.45528  0.01796  0.82420  1.0000
  C   C22       1.0  0.54685  0.01883  0.17181  1.0000
  C   C23       1.0  0.95480  0.51839  0.82594  1.0000
  C   C24       1.0  0.04672  0.51814  0.17046  1.0000
  C   C25       1.0  0.45171  0.91823  0.86745  1.0000
  C   C26       1.0  0.55178  0.91942  0.12743  1.0000
  C   C27       1.0  0.04907  0.41786  0.13783  1.0000
  C   C28       1.0  0.54913  0.89240  0.22117  1.0000
  C   C29       1.0  0.45499  0.88943  0.78820  1.0000
  C   C30       1.0  0.04538  0.39005  0.22324  1.0000
  C   C31       1.0  0.57281  0.87445  0.27280  1.0000
  C   C32       1.0  0.43155  0.87124  0.73420  1.0000
  C   C33       1.0  0.06848  0.37120  0.27481  1.0000
  C   C34       1.0  0.60063  0.88243  0.23014  1.0000
  C   C35       1.0  0.40325  0.88102  0.75782  1.0000
  C   C36       1.0  0.09678  0.37933  0.24263  1.0000
  C   C37       1.0  0.60332  0.90917  0.13431  1.0000
  C   C38       1.0  0.39987  0.90924  0.84236  1.0000
  C   C39       1.0  0.10049  0.40656  0.15272  1.0000
  C   C40       1.0  0.57955  0.92735  0.08495  1.0000
  C   C41       1.0  0.42342  0.92740  0.89508  1.0000
  C   C42       1.0  0.07731  0.42546  0.10259  1.0000
  C   C43       1.0  0.67616  0.17493  0.39106  1.0000
  C   C44       1.0  0.32450  0.17458  0.61213  1.0000
  C   C45       1.0  0.17621  0.67649  0.37442  1.0000
  C   C46       1.0  0.32558  0.82914  0.61712  1.0000
  C   C47       1.0  0.17382  0.32633  0.37982  1.0000
  C   C48       1.0  0.70006  0.19201  0.45044  1.0000
  C   C49       1.0  0.30057  0.19186  0.55531  1.0000
  C   C50       1.0  0.19978  0.69426  0.43145  1.0000
  C   C51       1.0  0.30195  0.81103  0.56490  1.0000
  C   C52       1.0  0.19737  0.30807  0.43168  1.0000
  C   C53       1.0  0.69756  0.21507  0.57390  1.0000
  C   C54       1.0  0.30292  0.21496  0.43435  1.0000
  C   C55       1.0  0.19700  0.71741  0.55409  1.0000
  C   C56       1.0  0.30441  0.78716  0.44600  1.0000
  C   C57       1.0  0.19476  0.28434  0.54880  1.0000
  C   C58       1.0  0.66993  0.22332  0.61910  1.0000
  C   C59       1.0  0.33049  0.22280  0.38814  1.0000
  C   C60       1.0  0.16930  0.72507  0.60025  1.0000
  C   C61       1.0  0.33199  0.77960  0.39717  1.0000
  C   C62       1.0  0.16708  0.27704  0.59563  1.0000
  C   C63       1.0  0.64612  0.20618  0.56065  1.0000
  C   C64       1.0  0.35436  0.20550  0.44428  1.0000
  C   C65       1.0  0.14579  0.70725  0.54416  1.0000
  C   C66       1.0  0.35553  0.79785  0.44788  1.0000
  C   C67       1.0  0.14362  0.29543  0.54520  1.0000
  C   C68       1.0  0.64898  0.18085  0.45167  1.0000
  C   C69       1.0  0.35167  0.18035  0.55206  1.0000
  C   C70       1.0  0.14905  0.68175  0.43676  1.0000
  C   C71       1.0  0.35265  0.82361  0.55410  1.0000
  C   C72       1.0  0.14669  0.32108  0.44135  1.0000
  C   C73       1.0  0.72296  0.22876  0.67332  1.0000
  C   C74       1.0  0.27736  0.22889  0.33757  1.0000
  C   C75       1.0  0.22229  0.73143  0.65281  1.0000
  C   C76       1.0  0.78066  0.73207  0.32895  1.0000
  C   C77       1.0  0.27879  0.77189  0.35630  1.0000
  C   C78       1.0  0.72409  0.77245  0.62980  1.0000
  C   C79       1.0  0.77840  0.27046  0.37497  1.0000
  C   C80       1.0  0.22035  0.26907  0.63810  1.0000
  C   C81       1.0  0.74357  0.24404  0.57884  1.0000
  C   C82       1.0  0.25656  0.24394  0.43404  1.0000
  C   C83       1.0  0.24302  0.74649  0.55825  1.0000
  C   C84       1.0  0.76051  0.74776  0.42659  1.0000
  C   C85       1.0  0.25884  0.75721  0.45785  1.0000
  C   C86       1.0  0.74496  0.75857  0.52957  1.0000
  C   C87       1.0  0.75890  0.25510  0.47671  1.0000
  C   C88       1.0  0.24057  0.25452  0.53545  1.0000
  C   C89       1.0  0.62372  0.16219  0.40593  1.0000
  C   C90       1.0  0.37689  0.16146  0.59668  1.0000
  C   C91       1.0  0.12425  0.66221  0.39440  1.0000
  C   C92       1.0  0.87870  0.66279  0.59080  1.0000
  C   C93       1.0  0.37774  0.84283  0.59719  1.0000
  C   C94       1.0  0.62581  0.84182  0.36777  1.0000
  C   C95       1.0  0.87538  0.34391  0.61464  1.0000
  C   C96       1.0  0.12176  0.34059  0.39925  1.0000
  C   C97       1.0  0.52401  0.93075  0.57574  1.0000
  C   C98       1.0  0.47588  0.93121  0.42801  1.0000
  C   C99       1.0  0.02336  0.43196  0.57854  1.0000
  C   C100      1.0  0.97492  0.43254  0.43442  1.0000
  C   C101      1.0  0.47591  0.06184  0.43274  1.0000
  C   C102      1.0  0.52492  0.06192  0.56983  1.0000
  C   C103      1.0  0.97648  0.56325  0.42889  1.0000
  C   C104      1.0  0.02540  0.56293  0.56678  1.0000
  C   C105      1.0  0.52412  0.96345  0.58110  1.0000
  C   C106      1.0  0.47670  0.96374  0.41772  1.0000
  C   C107      1.0  0.02350  0.46465  0.58446  1.0000
  C   C108      1.0  0.97591  0.46508  0.42279  1.0000
  C   C109      1.0  0.47669  0.02926  0.41938  1.0000
  C   C110      1.0  0.52457  0.02928  0.57824  1.0000
  C   C111      1.0  0.97671  0.53063  0.41945  1.0000
  C   C112      1.0  0.02456  0.53035  0.57822  1.0000
  C   C113      1.0  0.54617  0.98070  0.67366  1.0000
  C   C114      1.0  0.45488  0.98083  0.32318  1.0000
  C   C115      1.0  0.04567  0.48178  0.67666  1.0000
  C   C116      1.0  0.95423  0.48226  0.32765  1.0000
  C   C117      1.0  0.45483  0.01220  0.32426  1.0000
  C   C118      1.0  0.54646  0.01211  0.67168  1.0000
  C   C119      1.0  0.95459  0.51362  0.32628  1.0000
  C   C120      1.0  0.04622  0.51315  0.67319  1.0000
  C   C121      1.0  0.45015  0.91400  0.36482  1.0000
  C   C122      1.0  0.54888  0.91238  0.64109  1.0000
  C   C123      1.0  0.04857  0.41380  0.64097  1.0000
  C   C124      1.0  0.95097  0.58133  0.37123  1.0000
  C   C125      1.0  0.54555  0.88522  0.73280  1.0000
  C   C126      1.0  0.45183  0.88767  0.26181  1.0000
  C   C127      1.0  0.04603  0.38699  0.73665  1.0000
  C   C128      1.0  0.95336  0.60847  0.27836  1.0000
  C   C129      1.0  0.56904  0.86746  0.79083  1.0000
  C   C130      1.0  0.42726  0.87179  0.20247  1.0000
  C   C131      1.0  0.07001  0.36985  0.79335  1.0000
  C   C132      1.0  0.92928  0.62551  0.22313  1.0000
  C   C133      1.0  0.59703  0.87632  0.75668  1.0000
  C   C134      1.0  0.40002  0.88180  0.24645  1.0000
  C   C135      1.0  0.09769  0.37904  0.75496  1.0000
  C   C136      1.0  0.90170  0.61613  0.26230  1.0000
  C   C137      1.0  0.60029  0.90272  0.65892  1.0000
  C   C138      1.0  0.39845  0.90741  0.35467  1.0000
  C   C139      1.0  0.10014  0.40505  0.65315  1.0000
  C   C140      1.0  0.89938  0.58983  0.36206  1.0000
  C   C141      1.0  0.57679  0.92044  0.60280  1.0000
  C   C142      1.0  0.42299  0.92333  0.41201  1.0000
  C   C143      1.0  0.07615  0.42211  0.59767  1.0000
  C   C144      1.0  0.92347  0.57261  0.41419  1.0000
  C   C145      1.0  0.67922  0.15546  0.85593  1.0000
  C   C146      1.0  0.31987  0.15446  0.14994  1.0000
  C   C147      1.0  0.67706  0.83889  0.86949  1.0000
  C   C148      1.0  0.17810  0.34022  0.86371  1.0000
  C   C149      1.0  0.70329  0.17363  0.84858  1.0000
  C   C150      1.0  0.29601  0.17319  0.15760  1.0000
  C   C151      1.0  0.70184  0.82245  0.84621  1.0000
  C   C152      1.0  0.20217  0.32240  0.84306  1.0000
  C   C153      1.0  0.70364  0.20383  0.91475  1.0000
  C   C154      1.0  0.29609  0.20333  0.09365  1.0000
  C   C155      1.0  0.70360  0.79106  0.88755  1.0000
  C   C156      1.0  0.20301  0.29150  0.89515  1.0000
  C   C157      1.0  0.68188  0.21302  0.01691  1.0000
  C   C158      1.0  0.31803  0.21185  0.99247  1.0000
  C   C159      1.0  0.68256  0.77836  0.98268  1.0000
  C   C160      1.0  0.18214  0.28107  0.99867  1.0000
  C   C161      1.0  0.65762  0.19460  0.02515  1.0000
  C   C162      1.0  0.34209  0.19290  0.98415  1.0000
  C   C163      1.0  0.65752  0.79500  0.00632  1.0000
  C   C164      1.0  0.15784  0.29908  0.01993  1.0000
  C   C165      1.0  0.65507  0.16680  0.93315  1.0000
  C   C166      1.0  0.34426  0.16521  0.07475  1.0000
  C   C167      1.0  0.65354  0.82447  0.93661  1.0000
  C   C168      1.0  0.15445  0.32769  0.93914  1.0000
  C   C169      1.0  0.72422  0.22580  0.84742  1.0000
  C   C170      1.0  0.27578  0.22581  0.16303  1.0000
  C   C171      1.0  0.22369  0.72852  0.82694  1.0000
  C   C172      1.0  0.77829  0.72830  0.15504  1.0000
  C   C173      1.0  0.27599  0.77313  0.18141  1.0000
  C   C174      1.0  0.72510  0.77199  0.80458  1.0000
  C   C175      1.0  0.77572  0.27172  0.20015  1.0000
  C   C176      1.0  0.22290  0.27026  0.81317  1.0000
  C   C177      1.0  0.74315  0.24190  0.96724  1.0000
  C   C178      1.0  0.25657  0.24173  0.04461  1.0000
  C   C179      1.0  0.24286  0.74434  0.94691  1.0000
  C   C180      1.0  0.75895  0.74410  0.03720  1.0000
  C   C181      1.0  0.25647  0.75623  0.06832  1.0000
  C   C182      1.0  0.74503  0.75559  0.91649  1.0000
  C   C183      1.0  0.75660  0.25426  0.08767  1.0000
  C   C184      1.0  0.24267  0.25353  0.92480  1.0000
  C   C185      1.0  0.62761  0.15115  0.90283  1.0000
  C   C186      1.0  0.37166  0.14936  0.10538  1.0000
  C   C187      1.0  0.12838  0.65224  0.89356  1.0000
  C   C188      1.0  0.87347  0.65153  0.09675  1.0000
  C   C189      1.0  0.37058  0.84690  0.08222  1.0000
  C   C190      1.0  0.62540  0.83923  0.91417  1.0000
  C   C191      1.0  0.86965  0.34678  0.09686  1.0000
  C   C192      1.0  0.12658  0.34296  0.91548  1.0000
  C   C193      1.0  0.50116  0.98621  0.99838  1.0000
  C   C194      1.0  0.00026  0.48607  0.00189  1.0000
  C   C195      1.0  0.50086  0.01921  0.99937  1.0000
  C   C196      1.0  0.00066  0.51905  0.99919  1.0000
  C   C197      1.0  0.50158  0.92194  0.00043  1.0000
  C   C198      1.0  0.99924  0.42188  0.00800  1.0000
  C   C199      1.0  0.50014  0.08356  0.00331  1.0000
  C   C200      1.0  0.00122  0.58339  0.99561  1.0000
  C   C201      1.0  0.50058  0.97998  0.49847  1.0000
  C   C202      1.0  0.99999  0.48124  0.50206  1.0000
  C   C203      1.0  0.50068  0.01289  0.49813  1.0000
  C   C204      1.0  0.00046  0.51412  0.49955  1.0000
  C   C205      1.0  0.49968  0.91562  0.50288  1.0000
  C   C206      1.0  0.99885  0.41688  0.50788  1.0000
  C   C207      1.0  0.50032  0.07718  0.50229  1.0000
  C   C208      1.0  0.00106  0.57840  0.49727  1.0000
  N   N1        1.0  0.62350  0.14006  0.29547  1.0000
  N   N2        1.0  0.37709  0.13977  0.70759  1.0000
  N   N3        1.0  0.12422  0.64020  0.28317  1.0000
  N   N4        1.0  0.87854  0.64114  0.70179  1.0000
  N   N5        1.0  0.37811  0.86433  0.71170  1.0000
  N   N6        1.0  0.62614  0.86597  0.27345  1.0000
  N   N7        1.0  0.87537  0.36576  0.72695  1.0000
  N   N8        1.0  0.12166  0.36200  0.28655  1.0000
  N   N9        1.0  0.62503  0.13051  0.78391  1.0000
  N   N10       1.0  0.37431  0.12870  0.22220  1.0000
  N   N11       1.0  0.12588  0.63126  0.77650  1.0000
  N   N12       1.0  0.87587  0.63090  0.21372  1.0000
  N   N13       1.0  0.37377  0.86800  0.19808  1.0000
  N   N14       1.0  0.62254  0.86107  0.80462  1.0000
  N   N15       1.0  0.87300  0.36779  0.21315  1.0000
  N   N16       1.0  0.12355  0.36427  0.80256  1.0000
  C   C209      1.0  0.81108  0.34222  0.17041  1.0000
  C   C210      1.0  0.83638  0.33485  0.09541  1.0000
  C  Sn1       1.0  0.83928  0.30642  0.01511  1.0000
  C  Sn2       1.0  0.81638  0.28503  0.00997  1.0000
  C   C211      1.0  0.79115  0.29264  0.08528  1.0000
  C   C212      1.0  0.78848  0.32115  0.16535  1.0000
  H   H105      1.0  0.80901  0.36429  0.23228  1.0000
  O  Te1       1.0  0.87772  0.30106  0.94087  1.0000
  O  Te2       1.0  0.83171  0.25810  0.93050  1.0000
  H   H106      1.0  0.76887  0.32686  0.22331  1.0000
  Mg  Mg1       1.0  0.87063  0.25918  0.84758  1.0000
  C   C213      1.0  0.85415  0.71283  0.40527  1.0000
  C   C214      1.0  0.85579  0.68986  0.52767  1.0000
  C  Sn3       1.0  0.83101  0.68019  0.59983  1.0000
  C  Sn4       1.0  0.80413  0.69380  0.54821  1.0000
  C   C215      1.0  0.80272  0.71675  0.42558  1.0000
  C   C216      1.0  0.82764  0.72626  0.35423  1.0000
  H   H107      1.0  0.87343  0.72018  0.34999  1.0000
  O  Te3       1.0  0.83304  0.65721  0.72200  1.0000
  O  Te4       1.0  0.77903  0.68456  0.61822  1.0000
  H   H108      1.0  0.82636  0.74404  0.25939  1.0000
  Mg  Mg2       1.0  0.79280  0.65242  0.78034  1.0000
  C   C217      1.0  0.06451  0.62559  0.76116  1.0000
  C   C218      1.0  0.09352  0.61885  0.74696  1.0000
  C  Sn5       1.0  0.10151  0.59261  0.65891  1.0000
  C  Sn6       1.0  0.07999  0.57280  0.58379  1.0000
  C   C219      1.0  0.05102  0.57976  0.59861  1.0000
  C   C220      1.0  0.04328  0.60607  0.68705  1.0000
  H   H109      1.0  0.05851  0.64596  0.82950  1.0000
  O  Te5       1.0  0.13059  0.58621  0.64598  1.0000
  O  Te6       1.0  0.08737  0.54643  0.49502  1.0000
  H   H110      1.0  0.02081  0.61129  0.69793  1.0000
  Mg  Mg3       1.0  0.12989  0.54753  0.51222  1.0000
  C   C221      1.0  0.94777  0.38121  0.25336  1.0000
  C   C222      1.0  0.95000  0.40884  0.34453  1.0000
  C  Sn7       1.0  0.92553  0.42263  0.40319  1.0000
  C  Sn8       1.0  0.89836  0.40844  0.36981  1.0000
  C   C223      1.0  0.89636  0.38079  0.27859  1.0000
  C   C224      1.0  0.92098  0.36719  0.22043  1.0000
  H   H111      1.0  0.96682  0.37068  0.20843  1.0000
  O  Te7       1.0  0.92814  0.45024  0.49403  1.0000
  O  Te8       1.0  0.87356  0.42172  0.42702  1.0000
  H   H112      1.0  0.91925  0.34579  0.14994  1.0000
  Mg  Mg4       1.0  0.88812  0.45943  0.54538  1.0000
  C   C225      1.0  0.68677  0.82871  0.36820  1.0000
  C   C226      1.0  0.65763  0.82381  0.38706  1.0000
  C  Sn9       1.0  0.64904  0.79974  0.48683  1.0000
  C  Sn10      1.0  0.67006  0.78026  0.56913  1.0000
  C   C227      1.0  0.69916  0.78536  0.54956  1.0000
  C   C228      1.0  0.70752  0.80951  0.44938  1.0000
  H   H113      1.0  0.69324  0.84740  0.29077  1.0000
  O  Te9       1.0  0.61983  0.79517  0.50427  1.0000
  O  Te10      1.0  0.66206  0.75604  0.66964  1.0000
  H   H114      1.0  0.73008  0.81331  0.43490  1.0000
  Mg  Mg5       1.0  0.61962  0.75908  0.65456  1.0000
  C   C229      1.0  0.83891  0.28171  0.41134  1.0000
  C   C230      1.0  0.81101  0.28218  0.46381  1.0000
  C  Sn11      1.0  0.80258  0.30526  0.57348  1.0000
  C  Sn12      1.0  0.82250  0.32826  0.63144  1.0000
  C   C231      1.0  0.85036  0.32760  0.57811  1.0000
  C   C232      1.0  0.85857  0.30440  0.46840  1.0000
  H   H115      1.0  0.84526  0.26377  0.32638  1.0000
  O  Te11      1.0  0.77462  0.30538  0.62470  1.0000
  O  Te12      1.0  0.81465  0.35160  0.74105  1.0000
  H   H116      1.0  0.88017  0.30405  0.42771  1.0000
  Mg  Mg6       1.0  0.77410  0.34194  0.77514  1.0000
  C   C233      1.0  0.93981  0.63147  0.72031  1.0000
  C   C234      1.0  0.91050  0.62647  0.73280  1.0000
  C  Sn13      1.0  0.90127  0.60103  0.81980  1.0000
  C  Sn14      1.0  0.92181  0.58025  0.89560  1.0000
  C   C235      1.0  0.95108  0.58547  0.88249  1.0000
  C   C236      1.0  0.96008  0.61100  0.79510  1.0000
  H   H117      1.0  0.94677  0.65124  0.65278  1.0000
  O  Te13      1.0  0.87191  0.59637  0.83101  1.0000
  O  Te14      1.0  0.91318  0.55464  0.98335  1.0000
  H   H118      1.0  0.98277  0.61488  0.78555  1.0000
  Mg  Mg7       1.0  0.87076  0.55814  0.96389  1.0000
  C   C237      1.0  0.81479  0.65798  0.16038  1.0000
  C   C238      1.0  0.83885  0.66230  0.06885  1.0000
  C  Sn15      1.0  0.85514  0.69122  0.98102  1.0000
  C  Sn16      1.0  0.83390  0.71457  0.98517  1.0000
  C   C239      1.0  0.79691  0.70839  0.07721  1.0000
  C   C240      1.0  0.79384  0.68100  0.16460  1.0000
  H   H119      1.0  0.81241  0.63679  0.22808  1.0000
  O  Te15      1.0  0.87931  0.69515  0.89015  1.0000
  O  Te16      1.0  0.83665  0.74206  0.89858  1.0000
  H   H120      1.0  0.77521  0.67767  0.23554  1.0000
  Mg  Mg8       1.0  0.87341  0.73663  0.79257  1.0000
  C   C241      1.0  0.43583  0.12339  0.23601  1.0000
  C   C242      1.0  0.40692  0.11665  0.25174  1.0000
  C  Sn17      1.0  0.39933  0.09104  0.34319  1.0000
  C  Sn18      1.0  0.42114  0.07186  0.42022  1.0000
  C   C243      1.0  0.45000  0.07881  0.40385  1.0000
  C   C244      1.0  0.45735  0.10449  0.31201  1.0000
  H   H121      1.0  0.44152  0.14327  0.16503  1.0000
  O  Te17      1.0  0.37035  0.08463  0.35759  1.0000
  O  Te18      1.0  0.41416  0.04612  0.51239  1.0000
  H   H122      1.0  0.47974  0.10971  0.29995  1.0000
  Mg  Mg9       1.0  0.37163  0.04694  0.49607  1.0000
  C   C245      1.0  0.18664  0.65883  0.82289  1.0000
  C   C246      1.0  0.16263  0.66371  0.91485  1.0000
  C  Sn19      1.0  0.14632  0.68977  0.00178  1.0000
  C  Sn20      1.0  0.18047  0.71461  0.99629  1.0000
  C   C247      1.0  0.20441  0.70951  0.90383  1.0000
  C   C248      1.0  0.20751  0.68170  0.81734  1.0000
  H   H123      1.0  0.18904  0.63732  0.75589  1.0000
  O  Te19      1.0  0.12221  0.69427  0.09310  1.0000
  O  Te20      1.0  0.16469  0.74087  0.08196  1.0000
  H   H124      1.0  0.22609  0.67793  0.74607  1.0000
  Mg  Mg10      1.0  0.12803  0.73615  0.18906  1.0000
  C   C249      1.0  0.31186  0.84320  0.15219  1.0000
  C   C250      1.0  0.33721  0.83555  0.07829  1.0000
  C  Sn21      1.0  0.35296  0.80871  0.99833  1.0000
  C  Sn22      1.0  0.32986  0.78755  0.99242  1.0000
  C   C251      1.0  0.29159  0.79379  0.06662  1.0000
  C   C252      1.0  0.28907  0.82235  0.14635  1.0000
  H   H125      1.0  0.30991  0.86531  0.21380  1.0000
  O  Te21      1.0  0.37843  0.80142  0.92520  1.0000
  O  Te22      1.0  0.33203  0.75893  0.91327  1.0000
  H   H126      1.0  0.26944  0.82828  0.20346  1.0000
  Mg  Mg11      1.0  0.37108  0.75958  0.83194  1.0000
  C   C253      1.0  0.40181  0.08851  0.86274  1.0000
  C   C254      1.0  0.40116  0.11694  0.78210  1.0000
  C  Sn23      1.0  0.42655  0.13008  0.73463  1.0000
  C  Sn24      1.0  0.45305  0.11441  0.76864  1.0000
  C   C255      1.0  0.45347  0.08597  0.84927  1.0000
  C   C256      1.0  0.42794  0.07303  0.89628  1.0000
  H   H127      1.0  0.38206  0.07848  0.89904  1.0000
  O  Te23      1.0  0.42551  0.15851  0.65422  1.0000
  O  Te24      1.0  0.47874  0.12702  0.72250  1.0000
  H   H128      1.0  0.42844  0.05101  0.95861  1.0000
  Mg  Mg12      1.0  0.46627  0.16630  0.61583  1.0000
  C   C257      1.0  0.59891  0.08154  0.61739  1.0000
  C   C258      1.0  0.60020  0.11004  0.70015  1.0000
  C  Sn25      1.0  0.57531  0.12343  0.75571  1.0000
  C  Sn26      1.0  0.54866  0.10794  0.72775  1.0000
  C   C259      1.0  0.54760  0.07943  0.64494  1.0000
  C   C260      1.0  0.57264  0.06624  0.58982  1.0000
  H   H129      1.0  0.61828  0.07133  0.57481  1.0000
  O  Te25      1.0  0.57697  0.15193  0.83814  1.0000
  O  Te26      1.0  0.52346  0.12080  0.78202  1.0000
  H   H130      1.0  0.57164  0.04417  0.52583  1.0000
  Mg  Mg13      1.0  0.53672  0.16008  0.88843  1.0000
  C   C261      1.0  0.06312  0.63070  0.27367  1.0000
  C   C262      1.0  0.09232  0.62541  0.25706  1.0000
  C  Sn27      1.0  0.10117  0.59993  0.16574  1.0000
  C  Sn28      1.0  0.08035  0.57941  0.08974  1.0000
  C   C263      1.0  0.05119  0.58491  0.10699  1.0000
  C   C264      1.0  0.04257  0.61048  0.19870  1.0000
  H   H131      1.0  0.05644  0.65048  0.34454  1.0000
  O  Te27      1.0  0.13043  0.59498  0.15044  1.0000
  O  Te28      1.0  0.10161  0.55541  0.99772  1.0000
  H   H132      1.0  0.01996  0.61457  0.21144  1.0000
  Mg  Mg14      1.0  0.13103  0.55683  0.01257  1.0000
  C   C265      1.0  0.58555  0.08060  0.09568  1.0000
  C   C266      1.0  0.55686  0.08357  0.13230  1.0000
  C  Sn29      1.0  0.54811  0.10855  0.22791  1.0000
  C  Sn30      1.0  0.56851  0.13094  0.28775  1.0000
  C   C267      1.0  0.59716  0.12778  0.25033  1.0000
  C   C268      1.0  0.60569  0.10269  0.15460  1.0000
  H   H133      1.0  0.59215  0.06120  0.02154  1.0000
  O  Te29      1.0  0.51936  0.11115  0.26339  1.0000
  O  Te30      1.0  0.56035  0.15615  0.38352  1.0000
  H   H134      1.0  0.62790  0.10041  0.12617  1.0000
  Mg  Mg15      1.0  0.51869  0.14959  0.39876  1.0000
  C   C269      1.0  0.94949  0.38321  0.77616  1.0000
  C   C270      1.0  0.95042  0.41256  0.84921  1.0000
  C  Sn31      1.0  0.92520  0.42679  0.89427  1.0000
  C  Sn32      1.0  0.89858  0.41129  0.86556  1.0000
  C   C271      1.0  0.89787  0.38192  0.79251  1.0000
  C   C272      1.0  0.92324  0.36790  0.74785  1.0000
  H   H135      1.0  0.96912  0.37236  0.74168  1.0000
  O  Te31      1.0  0.92652  0.45613  0.96708  1.0000
  O  Te32      1.0  0.87305  0.42497  0.90945  1.0000
  H   H136      1.0  0.92251  0.34516  0.69139  1.0000
  Mg  Mg16      1.0  0.87289  0.46358  0.00513  1.0000
