data_image0
_chemical_formula_structural       H24C60N12SnCSn2CSnTe4Mg2SnCSn2CSnTe4Mg2SnCSn2CSnTe4Mg2SnCSn2CSnTe4Mg2SnCSn2CSnTe4Mg2SnCSn2CSnTe4Mg2SnCSn2CSnTe4Mg2SnCSn2CSnTe4Mg2SnCSn2CSnTe4Mg2SnCSn2CSnTe4Mg2SnCSn2CSnTe4Mg2SnCSn2CSnTe4Mg2SnCSn2CSnTe4Mg2SnCSn2CSnTe4Mg2SnCSn2CSnTe4Mg2SnCSn2CSnTe4Mg2SnCSn2CSnTe4Mg2SnCSn2CSnTe4Mg2SnCSn2CSnTe4Mg2SnCSn2CSnTe4Mg2SnCSn2CSnTe4Mg2SnCSn2CSnTe4Mg2SnCSn2CSnTe4Mg2SnCSn2CSnTe4Mg2
_chemical_formula_sum              "H24 C108 N12 Sn96 Te96 Mg48"
_cell_length_a       53.3831
_cell_length_b       53.6499
_cell_length_c       8.03839
_cell_angle_alpha    98.5788
_cell_angle_beta     101.134
_cell_angle_gamma    119.79

_symmetry_space_group_name_H-M    'P1'
_space_group_IT_number       1

loop_
  _space_group_symop_operation_xyz
  'x, y, z'

loop_
  _atom_site_type_symbol
  _atom_site_label
  _atom_site_symmetry_multiplicity
  _atom_site_fract_x
  _atom_site_fract_y
  _atom_site_fract_z
  _atom_site_occupancy
  H   H1        1.0  0.38396  0.82040  0.07701  1.0000
  H   H2        1.0  0.16640  0.55086  0.16501  1.0000
  H   H3        1.0  0.44325  0.61534  0.12888  1.0000
  H   H4        1.0  0.60313  0.16365  0.13228  1.0000
  H   H5        1.0  0.82365  0.43723  0.15842  1.0000
  H   H6        1.0  0.55319  0.38328  0.14881  1.0000
  H   H7        1.0  0.69324  0.30548  0.28971  1.0000
  H   H8        1.0  0.69492  0.38648  0.29455  1.0000
  H   H9        1.0  0.61338  0.30733  0.28251  1.0000
  H   H10       1.0  0.30729  0.69429  0.27069  1.0000
  H   H11       1.0  0.30758  0.61429  0.26026  1.0000
  H   H12       1.0  0.38856  0.69577  0.27969  1.0000
  H   H13       1.0  0.38527  0.82265  0.58699  1.0000
  H   H14       1.0  0.16295  0.55231  0.61692  1.0000
  H   H15       1.0  0.43330  0.60590  0.60754  1.0000
  H   H16       1.0  0.61414  0.16696  0.66985  1.0000
  H   H17       1.0  0.82258  0.44078  0.64488  1.0000
  H   H18       1.0  0.54666  0.37639  0.64799  1.0000
  H   H19       1.0  0.69461  0.30847  0.78198  1.0000
  H   H20       1.0  0.69273  0.38782  0.78827  1.0000
  H   H21       1.0  0.61291  0.30658  0.77279  1.0000
  H   H22       1.0  0.30797  0.69633  0.77443  1.0000
  H   H23       1.0  0.30626  0.61552  0.76743  1.0000
  H   H24       1.0  0.38818  0.69565  0.78298  1.0000
  C   C1        1.0  0.40514  0.83384  0.18859  1.0000
  C   C2        1.0  0.16130  0.56719  0.22095  1.0000
  C   C3        1.0  0.43319  0.59628  0.18364  1.0000
  C   C4        1.0  0.58890  0.15969  0.22000  1.0000
  C   C5        1.0  0.83505  0.42743  0.22494  1.0000
  C   C6        1.0  0.56977  0.40690  0.22538  1.0000
  C   C7        1.0  0.68180  0.31748  0.28910  1.0000
  C   C8        1.0  0.68292  0.36297  0.29119  1.0000
  C   C9        1.0  0.63698  0.31835  0.28514  1.0000
  C   C10       1.0  0.31934  0.68286  0.27099  1.0000
  C   C11       1.0  0.31963  0.63784  0.26455  1.0000
  C   C12       1.0  0.36492  0.68342  0.27600  1.0000
  C   C13       1.0  0.69785  0.34756  0.28812  1.0000
  C   C14       1.0  0.65253  0.34859  0.28847  1.0000
  C   C15       1.0  0.65149  0.30247  0.28940  1.0000
  C   C16       1.0  0.30404  0.65257  0.26757  1.0000
  C   C17       1.0  0.35027  0.65293  0.26946  1.0000
  C   C18       1.0  0.34977  0.69856  0.27467  1.0000
  C   C19       1.0  0.47646  0.95805  0.24822  1.0000
  C   C20       1.0  0.04021  0.51593  0.24434  1.0000
  C   C21       1.0  0.48787  0.52833  0.19448  1.0000
  C   C22       1.0  0.52351  0.03938  0.24807  1.0000
  C   C23       1.0  0.95910  0.48136  0.25923  1.0000
  C   C24       1.0  0.52202  0.48089  0.22484  1.0000
  C   C25       1.0  0.49201  0.98453  0.25211  1.0000
  C   C26       1.0  0.01404  0.50464  0.25016  1.0000
  C   C27       1.0  0.49918  0.51324  0.20510  1.0000
  C   C28       1.0  0.50866  0.01328  0.25233  1.0000
  C   C29       1.0  0.98535  0.49241  0.25517  1.0000
  C   C30       1.0  0.51127  0.49648  0.21577  1.0000
  C   C31       1.0  0.40711  0.83529  0.69365  1.0000
  C   C32       1.0  0.15984  0.56771  0.70423  1.0000
  C   C33       1.0  0.42549  0.58947  0.68295  1.0000
  C   C34       1.0  0.59609  0.16186  0.73122  1.0000
  C   C35       1.0  0.83445  0.43169  0.71516  1.0000
  C   C36       1.0  0.56251  0.40028  0.72162  1.0000
  C   C37       1.0  0.68247  0.31979  0.78119  1.0000
  C   C38       1.0  0.68158  0.36428  0.78378  1.0000
  C   C39       1.0  0.63655  0.31850  0.77611  1.0000
  C   C40       1.0  0.31950  0.68437  0.77472  1.0000
  C   C41       1.0  0.31881  0.63896  0.77017  1.0000
  C   C42       1.0  0.36457  0.68372  0.77996  1.0000
  C   C43       1.0  0.69756  0.34992  0.78054  1.0000
  C   C44       1.0  0.65109  0.34871  0.77913  1.0000
  C   C45       1.0  0.65222  0.30378  0.78148  1.0000
  C   C46       1.0  0.30372  0.65412  0.77206  1.0000
  C   C47       1.0  0.34936  0.65327  0.77475  1.0000
  C   C48       1.0  0.34992  0.69940  0.77789  1.0000
  C   C49       1.0  0.47961  0.95972  0.75316  1.0000
  C   C50       1.0  0.04015  0.51709  0.75075  1.0000
  C   C51       1.0  0.47803  0.51964  0.70321  1.0000
  C   C52       1.0  0.52654  0.04022  0.73571  1.0000
  C   C53       1.0  0.95868  0.48543  0.75261  1.0000
  C   C54       1.0  0.51156  0.47154  0.72263  1.0000
  C   C55       1.0  0.49507  0.98590  0.75079  1.0000
  C   C56       1.0  0.01392  0.50679  0.75358  1.0000
  C   C57       1.0  0.48886  0.50409  0.70947  1.0000
  C   C58       1.0  0.51169  0.01437  0.74478  1.0000
  C   C59       1.0  0.98511  0.49559  0.75425  1.0000
  C   C60       1.0  0.50073  0.48710  0.71667  1.0000
  N   N1        1.0  0.82168  0.40568  0.29274  1.0000
  N   N2        1.0  0.59785  0.41703  0.30556  1.0000
  N   N3        1.0  0.58638  0.18043  0.30433  1.0000
  N   N4        1.0  0.18115  0.59578  0.27572  1.0000
  N   N5        1.0  0.41114  0.58995  0.24958  1.0000
  N   N6        1.0  0.41384  0.82245  0.30015  1.0000
  N   N7        1.0  0.82147  0.41035  0.78637  1.0000
  N   N8        1.0  0.59106  0.41184  0.79770  1.0000
  N   N9        1.0  0.59054  0.18158  0.79507  1.0000
  N   N10       1.0  0.18111  0.59550  0.78407  1.0000
  N   N11       1.0  0.40562  0.58587  0.76316  1.0000
  N   N12       1.0  0.41596  0.82313  0.79863  1.0000
  C  Sn1       1.0  0.59009  0.23313  0.30290  1.0000
  C   C61       1.0  0.59692  0.21160  0.25559  1.0000
  C  Sn2       1.0  0.62558  0.22025  0.24082  1.0000
  C  Sn3       1.0  0.64789  0.25106  0.27414  1.0000
  C   C62       1.0  0.64106  0.27258  0.32144  1.0000
  C  Sn4       1.0  0.61240  0.26395  0.33621  1.0000
  O  Te1       1.0  0.56130  0.22398  0.31688  1.0000
  O  Te2       1.0  0.63187  0.19831  0.19329  1.0000
  O  Te3       1.0  0.67671  0.26020  0.26011  1.0000
  O  Te4       1.0  0.60611  0.28587  0.38375  1.0000
  Mg  Mg1       1.0  0.67440  0.22194  0.19154  1.0000
  Mg  Mg2       1.0  0.56360  0.26226  0.38562  1.0000
  C  Sn5       1.0  0.74585  0.38703  0.16837  1.0000
  C   C63       1.0  0.73051  0.36251  0.23188  1.0000
  C  Sn6       1.0  0.74669  0.35433  0.34452  1.0000
  C  Sn7       1.0  0.77887  0.37102  0.39483  1.0000
  C   C64       1.0  0.79419  0.39552  0.33136  1.0000
  C  Sn8       1.0  0.77803  0.40371  0.21868  1.0000
  O  Te5       1.0  0.72921  0.39480  0.05591  1.0000
  O  Te6       1.0  0.73086  0.32972  0.40626  1.0000
  O  Te7       1.0  0.79550  0.36322  0.50738  1.0000
  O  Te8       1.0  0.79385  0.42831  0.15698  1.0000
  Mg  Mg3       1.0  0.76365  0.32793  0.55669  1.0000
  Mg  Mg4       1.0  0.76108  0.43012  0.00663  1.0000
  C  Sn9       1.0  0.60791  0.35935  0.12832  1.0000
  C   C65       1.0  0.63560  0.36712  0.24286  1.0000
  C  Sn10      1.0  0.64977  0.39032  0.40053  1.0000
  C  Sn11      1.0  0.63597  0.40607  0.44471  1.0000
  C   C66       1.0  0.60830  0.39829  0.33023  1.0000
  C  Sn12      1.0  0.59412  0.37509  0.17250  1.0000
  O  Te9       1.0  0.64757  0.38484  0.97140  1.0000
  O  Te10      1.0  0.67744  0.39770  0.51289  1.0000
  O  Te11      1.0  0.64976  0.42935  0.60178  1.0000
  O  Te12      1.0  0.56646  0.36771  0.06020  1.0000
  Mg  Mg5       1.0  0.68733  0.43108  0.71165  1.0000
  Mg  Mg6       1.0  0.60997  0.38309  0.86146  1.0000
  C  Sn13      1.0  0.39828  0.75933  0.43304  1.0000
  C   C67       1.0  0.36873  0.73605  0.33206  1.0000
  C  Sn14      1.0  0.35261  0.73977  0.18951  1.0000
  C  Sn15      1.0  0.36633  0.76733  0.14692  1.0000
  C   C68       1.0  0.39587  0.79059  0.24785  1.0000
  C  Sn16      1.0  0.41200  0.78689  0.39045  1.0000
  O  Te13      1.0  0.41397  0.75511  0.57495  1.0000
  O  Te14      1.0  0.32309  0.71618  0.09054  1.0000
  O  Te15      1.0  0.35061  0.77154  0.00488  1.0000
  O  Te16      1.0  0.44151  0.81046  0.48937  1.0000
  Mg  Mg7       1.0  0.36438  0.78152  0.90965  1.0000
  Mg  Mg8       1.0  0.45366  0.79390  0.67022  1.0000
  C  Sn17      1.0  0.24174  0.60545  0.11470  1.0000
  C   C69       1.0  0.26599  0.63423  0.21570  1.0000
  C  Sn18      1.0  0.26344  0.64983  0.36019  1.0000
  C  Sn19      1.0  0.23610  0.63637  0.40475  1.0000
  C   C70       1.0  0.21188  0.60760  0.30380  1.0000
  C  Sn20      1.0  0.21440  0.59199  0.15925  1.0000
  O  Te17      1.0  0.29821  0.63903  0.97081  1.0000
  O  Te18      1.0  0.28799  0.67858  0.45915  1.0000
  O  Te19      1.0  0.23308  0.65157  0.54876  1.0000
  O  Te20      1.0  0.18988  0.56325  0.06035  1.0000
  Mg  Mg9       1.0  0.27285  0.69023  0.64313  1.0000
  Mg  Mg10      1.0  0.25842  0.60033  0.87640  1.0000
  C  Sn21      1.0  0.39359  0.64304  0.16493  1.0000
  C   C71       1.0  0.36730  0.63461  0.21282  1.0000
  C  Sn22      1.0  0.35734  0.61322  0.30516  1.0000
  C  Sn23      1.0  0.37402  0.59998  0.35070  1.0000
  C   C72       1.0  0.40030  0.60841  0.30285  1.0000
  C  Sn24      1.0  0.41028  0.62980  0.21047  1.0000
  O  Te21      1.0  0.40313  0.66447  0.07265  1.0000
  O  Te22      1.0  0.33098  0.60515  0.35154  1.0000
  O  Te23      1.0  0.36447  0.57853  0.44304  1.0000
  O  Te24      1.0  0.43662  0.63787  0.16412  1.0000
  Mg  Mg11      1.0  0.32717  0.57494  0.47681  1.0000
  Mg  Mg12      1.0  0.44046  0.66808  0.03894  1.0000
  C  Sn25      1.0  0.41749  0.88317  0.05599  1.0000
  C   C73       1.0  0.42493  0.86692  0.15298  1.0000
  C  Sn26      1.0  0.44909  0.88179  0.31070  1.0000
  C  Sn27      1.0  0.46615  0.91355  0.37287  1.0000
  C   C74       1.0  0.45869  0.92978  0.27593  1.0000
  C  Sn28      1.0  0.43455  0.91494  0.11816  1.0000
  O  Te25      1.0  0.44667  0.91660  0.89867  1.0000
  O  Te26      1.0  0.45611  0.86506  0.40533  1.0000
  O  Te27      1.0  0.49040  0.92887  0.53032  1.0000
  O  Te28      1.0  0.42752  0.93165  0.02357  1.0000
  Mg  Mg13      1.0  0.49116  0.89617  0.61222  1.0000
  Mg  Mg14      1.0  0.44589  0.94932  0.81673  1.0000
  C  Sn29      1.0  0.08668  0.50976  0.18433  1.0000
  C   C75       1.0  0.07423  0.52405  0.26297  1.0000
  C  Sn30      1.0  0.08970  0.55531  0.31497  1.0000
  C  Sn31      1.0  0.11820  0.57266  0.28769  1.0000
  C   C76       1.0  0.13063  0.55838  0.20907  1.0000
  C  Sn32      1.0  0.11518  0.52711  0.15705  1.0000
  O  Te29      1.0  0.07082  0.47848  0.13337  1.0000
  O  Te30      1.0  0.07680  0.56909  0.39338  1.0000
  O  Te31      1.0  0.13406  0.60397  0.33873  1.0000
  O  Te32      1.0  0.12807  0.51334  0.07866  1.0000
  Mg  Mg15      1.0  0.10712  0.61235  0.44008  1.0000
  Mg  Mg16      1.0  0.09775  0.47008  0.03183  1.0000
  C  Sn33      1.0  0.43773  0.54914  0.26877  1.0000
  C   C77       1.0  0.44831  0.57675  0.23304  1.0000
  C  Sn34      1.0  0.47130  0.58781  0.15409  1.0000
  C  Sn35      1.0  0.48398  0.57092  0.10981  1.0000
  C   C78       1.0  0.47340  0.54333  0.14550  1.0000
  C  Sn36      1.0  0.45041  0.53226  0.22449  1.0000
  O  Te33      1.0  0.41472  0.53852  0.34777  1.0000
  O  Te34      1.0  0.48151  0.61547  0.11972  1.0000
  O  Te35      1.0  0.50701  0.58157  0.03075  1.0000
  O  Te36      1.0  0.44019  0.50461  0.25883  1.0000
  Mg  Mg17      1.0  0.51328  0.62044  0.01020  1.0000
  Mg  Mg18      1.0  0.40842  0.49961  0.36824  1.0000
  C  Sn37      1.0  0.52843  0.09402  0.26742  1.0000
  C   C79       1.0  0.53298  0.07119  0.20815  1.0000
  C  Sn38      1.0  0.55993  0.07802  0.17262  1.0000
  C  Sn39      1.0  0.58281  0.10831  0.19694  1.0000
  C   C80       1.0  0.57826  0.13112  0.25621  1.0000
  C  Sn40      1.0  0.55131  0.12431  0.29174  1.0000
  O  Te37      1.0  0.50131  0.08667  0.30213  1.0000
  O  Te38      1.0  0.56396  0.05481  0.11343  1.0000
  O  Te39      1.0  0.60994  0.11565  0.16217  1.0000
  O  Te40      1.0  0.54728  0.14750  0.35092  1.0000
  Mg  Mg19      1.0  0.60481  0.07616  0.08409  1.0000
  Mg  Mg20      1.0  0.50645  0.12619  0.38039  1.0000
  C  Sn41      1.0  0.89245  0.43522  0.35700  1.0000
  C   C81       1.0  0.87252  0.44372  0.29157  1.0000
  C  Sn42      1.0  0.87999  0.46376  0.18956  1.0000
  C  Sn43      1.0  0.90796  0.47555  0.15206  1.0000
  C   C82       1.0  0.92786  0.46705  0.21744  1.0000
  C  Sn44      1.0  0.92041  0.44701  0.31950  1.0000
  O  Te41      1.0  0.88451  0.41515  0.45869  1.0000
  O  Te42      1.0  0.85971  0.47193  0.12566  1.0000
  O  Te43      1.0  0.91588  0.49564  0.05028  1.0000
  O  Te44      1.0  0.94068  0.43884  0.38335  1.0000
  Mg  Mg21      1.0  0.93415  0.54872  0.99303  1.0000
  Mg  Mg22      1.0  0.91968  0.41080  0.51591  1.0000
  C  Sn45      1.0  0.52640  0.41903  0.07871  1.0000
  C   C83       1.0  0.55514  0.42663  0.17620  1.0000
  C  Sn46      1.0  0.57341  0.45253  0.31952  1.0000
  C  Sn47      1.0  0.56272  0.47122  0.36647  1.0000
  C   C84       1.0  0.53399  0.46361  0.26904  1.0000
  C  Sn48      1.0  0.51571  0.43772  0.12566  1.0000
  O  Te45      1.0  0.56194  0.44179  0.93594  1.0000
  O  Te46      1.0  0.60206  0.45967  0.41495  1.0000
  O  Te47      1.0  0.58063  0.49724  0.50937  1.0000
  O  Te48      1.0  0.48707  0.43057  0.03029  1.0000
  Mg  Mg23      1.0  0.61799  0.49744  0.59868  1.0000
  Mg  Mg24      1.0  0.52454  0.44157  0.84660  1.0000
  C  Sn49      1.0  0.59373  0.23411  0.81057  1.0000
  C   C85       1.0  0.60064  0.21297  0.75441  1.0000
  C  Sn50      1.0  0.62856  0.22209  0.72626  1.0000
  C  Sn51      1.0  0.65005  0.25300  0.75496  1.0000
  C   C86       1.0  0.64314  0.27412  0.81111  1.0000
  C  Sn52      1.0  0.61522  0.26501  0.83926  1.0000
  O  Te49      1.0  0.56568  0.22448  0.83788  1.0000
  O  Te50      1.0  0.63494  0.20054  0.67006  1.0000
  O  Te51      1.0  0.67812  0.26261  0.72759  1.0000
  O  Te52      1.0  0.60883  0.28654  0.89546  1.0000
  Mg  Mg25      1.0  0.67627  0.22476  0.65106  1.0000
  Mg  Mg26      1.0  0.56752  0.26236  0.91458  1.0000
  C  Sn53      1.0  0.74520  0.39063  0.66223  1.0000
  C   C87       1.0  0.73019  0.36585  0.72438  1.0000
  C  Sn54      1.0  0.74669  0.35774  0.83516  1.0000
  C  Sn55      1.0  0.77887  0.37477  0.88496  1.0000
  C   C88       1.0  0.79386  0.39953  0.82285  1.0000
  C  Sn56      1.0  0.77738  0.40765  0.71203  1.0000
  O  Te53      1.0  0.72825  0.39833  0.55162  1.0000
  O  Te54      1.0  0.73117  0.33288  0.89556  1.0000
  O  Te55      1.0  0.79582  0.36705  0.99565  1.0000
  O  Te56      1.0  0.79288  0.43250  0.65166  1.0000
  Mg  Mg27      1.0  0.71091  0.28256  0.04365  1.0000
  Mg  Mg28      1.0  0.75975  0.43409  0.50365  1.0000
  C  Sn57      1.0  0.60561  0.35805  0.61316  1.0000
  C   C89       1.0  0.63317  0.36631  0.73170  1.0000
  C  Sn58      1.0  0.64577  0.38846  0.89280  1.0000
  C  Sn59      1.0  0.63050  0.40262  0.93640  1.0000
  C   C90       1.0  0.60295  0.39435  0.81792  1.0000
  C  Sn60      1.0  0.59034  0.37222  0.65676  1.0000
  O  Te57      1.0  0.59344  0.33586  0.45286  1.0000
  O  Te58      1.0  0.61992  0.34758  0.00914  1.0000
  O  Te59      1.0  0.58927  0.37607  0.09686  1.0000
  O  Te60      1.0  0.56278  0.36432  0.54048  1.0000
  Mg  Mg29      1.0  0.62736  0.37905  0.21152  1.0000
  Mg  Mg30      1.0  0.55531  0.33285  0.33811  1.0000
  C  Sn61      1.0  0.41353  0.77348  0.85810  1.0000
  C   C91       1.0  0.40256  0.78797  0.76589  1.0000
  C  Sn62      1.0  0.37136  0.77442  0.68828  1.0000
  C  Sn63      1.0  0.35070  0.74581  0.70323  1.0000
  C   C92       1.0  0.36168  0.73134  0.79541  1.0000
  C  Sn64      1.0  0.39287  0.74487  0.87305  1.0000
  O  Te61      1.0  0.44481  0.78745  0.93465  1.0000
  O  Te62      1.0  0.36094  0.78934  0.59671  1.0000
  O  Te63      1.0  0.31941  0.73185  0.62658  1.0000
  O  Te64      1.0  0.40330  0.72997  0.96460  1.0000
  Mg  Mg31      1.0  0.31627  0.76113  0.51541  1.0000
  Mg  Mg32      1.0  0.39453  0.70940  0.04603  1.0000
  C  Sn65      1.0  0.23588  0.64609  0.83344  1.0000
  C   C93       1.0  0.21267  0.61623  0.74526  1.0000
  C  Sn66      1.0  0.21949  0.59565  0.67674  1.0000
  C  Sn67      1.0  0.25015  0.60509  0.69686  1.0000
  C   C94       1.0  0.27334  0.63493  0.78501  1.0000
  C  Sn68      1.0  0.26654  0.65553  0.85356  1.0000
  O  Te65      1.0  0.22853  0.66628  0.90089  1.0000
  O  Te66      1.0  0.19589  0.56592  0.58905  1.0000
  O  Te67      1.0  0.25748  0.58487  0.62932  1.0000
  O  Te68      1.0  0.29012  0.68523  0.94123  1.0000
  Mg  Mg33      1.0  0.21739  0.54680  0.52039  1.0000
  Mg  Mg34      1.0  0.21523  0.65561  0.01002  1.0000
  C  Sn69      1.0  0.41019  0.64153  0.78924  1.0000
  C   C95       1.0  0.40023  0.61330  0.81467  1.0000
  C  Sn70      1.0  0.36996  0.59403  0.80457  1.0000
  C  Sn71      1.0  0.34920  0.60317  0.76819  1.0000
  C   C96       1.0  0.35915  0.63138  0.74276  1.0000
  C  Sn72      1.0  0.38943  0.65067  0.75286  1.0000
  O  Te69      1.0  0.44056  0.66042  0.79993  1.0000
  O  Te70      1.0  0.36054  0.56592  0.83053  1.0000
  O  Te71      1.0  0.31881  0.58424  0.75752  1.0000
  O  Te72      1.0  0.39885  0.67876  0.72690  1.0000
  Mg  Mg35      1.0  0.31687  0.54815  0.80268  1.0000
  Mg  Mg36      1.0  0.44250  0.69654  0.75462  1.0000
  C  Sn73      1.0  0.45866  0.89371  0.87813  1.0000
  C   C97       1.0  0.42877  0.87279  0.77026  1.0000
  C  Sn74      1.0  0.41536  0.87950  0.63166  1.0000
  C  Sn75      1.0  0.43217  0.90770  0.60012  1.0000
  C   C98       1.0  0.46204  0.92860  0.70792  1.0000
  C  Sn76      1.0  0.47547  0.92191  0.84659  1.0000
  O  Te73      1.0  0.41818  0.83776  0.01593  1.0000
  O  Te74      1.0  0.38544  0.85823  0.52564  1.0000
  O  Te75      1.0  0.41919  0.91488  0.46218  1.0000
  O  Te76      1.0  0.50537  0.94316  0.95254  1.0000
  Mg  Mg37      1.0  0.37777  0.87849  0.35418  1.0000
  Mg  Mg38      1.0  0.45964  0.87416  0.12398  1.0000
  C  Sn77      1.0  0.09764  0.52363  0.57789  1.0000
  C   C99       1.0  0.12328  0.55211  0.67107  1.0000
  C  Sn78      1.0  0.12332  0.56930  0.82002  1.0000
  C  Sn79      1.0  0.09720  0.55777  0.87712  1.0000
  C   C100      1.0  0.07160  0.52931  0.78400  1.0000
  C  Sn80      1.0  0.07153  0.51211  0.63500  1.0000
  O  Te77      1.0  0.09811  0.50684  0.42935  1.0000
  O  Te78      1.0  0.14921  0.59771  0.91098  1.0000
  O  Te79      1.0  0.04333  0.52583  0.02579  1.0000
  O  Te80      1.0  0.04566  0.48371  0.54409  1.0000
  Mg  Mg39      1.0  0.08412  0.56327  0.10565  1.0000
  Mg  Mg40      1.0  0.05731  0.46936  0.34946  1.0000
  C  Sn81      1.0  0.42849  0.52508  0.69503  1.0000
  C   C101      1.0  0.45490  0.53082  0.65552  1.0000
  C  Sn82      1.0  0.47560  0.55919  0.64459  1.0000
  C  Sn83      1.0  0.46981  0.58231  0.67386  1.0000
  C   C102      1.0  0.44343  0.57657  0.71337  1.0000
  C  Sn84      1.0  0.42270  0.54821  0.72431  1.0000
  O  Te81      1.0  0.40811  0.49656  0.70530  1.0000
  O  Te82      1.0  0.50184  0.56438  0.60484  1.0000
  O  Te83      1.0  0.49022  0.61085  0.66356  1.0000
  O  Te84      1.0  0.39649  0.54301  0.76405  1.0000
  Mg  Mg41      1.0  0.52274  0.60694  0.60564  1.0000
  Mg  Mg42      1.0  0.37558  0.50046  0.76338  1.0000
  C  Sn85      1.0  0.58055  0.10219  0.63163  1.0000
  C   C103      1.0  0.57492  0.12469  0.67753  1.0000
  C  Sn86      1.0  0.55423  0.12084  0.76998  1.0000
  C  Sn87      1.0  0.53885  0.09395  0.81765  1.0000
  C   C104      1.0  0.54448  0.07147  0.77178  1.0000
  C  Sn88      1.0  0.56517  0.07530  0.67930  1.0000
  O  Te85      1.0  0.60133  0.10653  0.53921  1.0000
  O  Te86      1.0  0.54898  0.14364  0.81435  1.0000
  O  Te87      1.0  0.51806  0.08963  0.91014  1.0000
  O  Te88      1.0  0.57043  0.05252  0.63496  1.0000
  Mg  Mg43      1.0  0.51860  0.12721  0.94069  1.0000
  Mg  Mg44      1.0  0.60081  0.06893  0.50871  1.0000
  C  Sn89      1.0  0.90466  0.43732  0.76127  1.0000
  C   C105      1.0  0.92265  0.46275  0.71145  1.0000
  C  Sn90      1.0  0.91297  0.48199  0.68058  1.0000
  C  Sn91      1.0  0.88474  0.47571  0.70003  1.0000
  C   C106      1.0  0.86677  0.45030  0.74985  1.0000
  C  Sn92      1.0  0.87642  0.43104  0.78071  1.0000
  O  Te89      1.0  0.91478  0.41840  0.79145  1.0000
  O  Te90      1.0  0.93134  0.50727  0.63084  1.0000
  O  Te91      1.0  0.87462  0.49466  0.66979  1.0000
  O  Te92      1.0  0.85807  0.40578  0.83045  1.0000
  Mg  Mg45      1.0  0.90770  0.52629  0.60461  1.0000
  Mg  Mg46      1.0  0.88169  0.38675  0.85681  1.0000
  C  Sn93      1.0  0.50434  0.41542  0.65672  1.0000
  C   C107      1.0  0.51844  0.44570  0.74689  1.0000
  C  Sn94      1.0  0.55002  0.46393  0.81987  1.0000
  C  Sn95      1.0  0.56789  0.45167  0.80227  1.0000
  C   C108      1.0  0.55380  0.42142  0.71212  1.0000
  C  Sn96      1.0  0.52222  0.40316  0.63912  1.0000
  O  Te93      1.0  0.47274  0.39761  0.58482  1.0000
  O  Te94      1.0  0.56359  0.49413  0.90947  1.0000
  O  Te95      1.0  0.59952  0.46951  0.87427  1.0000
  O  Te96      1.0  0.50865  0.37298  0.54954  1.0000
  Mg  Mg47      1.0  0.60744  0.50933  0.98432  1.0000
  Mg  Mg48      1.0  0.46480  0.35777  0.47456  1.0000
