data_image0
_chemical_formula_structural       H104C208N16SnCSn2CSnTe4Mg2SnCSn2CSnTe4Mg2SnCSn2CSnTe4Mg2SnCSn2CSnTe4Mg2SnCSn2CSnTe4Mg2SnCSn2CSnTe4Mg2SnCSn2CSnTe4Mg2SnCSn2CSnTe4Mg2SnCSn2CSnTe4Mg2SnCSn2CSnTe4Mg2SnCSn2CSnTe4Mg2SnCSn2CSnTe4Mg2SnCSn2CSnTe4Mg2SnCSn2CSnTe4Mg2SnCSn2CSnTe4Mg2SnCSn2CSnTe4Mg2
_chemical_formula_sum              "H104 C240 N16 Sn64 Te64 Mg32"
_cell_length_a       53.3663
_cell_length_b       39.6086
_cell_length_c       8.03925
_cell_angle_alpha    90.0134
_cell_angle_beta     115.154
_cell_angle_gamma    89.91

_symmetry_space_group_name_H-M    'P1'
_space_group_IT_number       1

loop_
  _space_group_symop_operation_xyz
  'x, y, z'

loop_
  _atom_site_type_symbol
  _atom_site_label
  _atom_site_symmetry_multiplicity
  _atom_site_fract_x
  _atom_site_fract_y
  _atom_site_fract_z
  _atom_site_occupancy
  H   H1        1.0  0.56126  0.97127  0.20371  1.0000
  H   H2        1.0  0.44050  0.97085  0.29510  1.0000
  H   H3        1.0  0.06147  0.47027  0.21345  1.0000
  H   H4        1.0  0.94112  0.47160  0.31020  1.0000
  H   H5        1.0  0.44099  0.03257  0.30265  1.0000
  H   H6        1.0  0.56146  0.03301  0.20781  1.0000
  H   H7        1.0  0.94121  0.53329  0.30748  1.0000
  H   H8        1.0  0.06138  0.53201  0.20831  1.0000
  H   H9        1.0  0.97743  0.37286  0.43623  1.0000
  H   H10       1.0  0.47617  0.12900  0.44365  1.0000
  H   H11       1.0  0.93771  0.33947  0.41731  1.0000
  H   H12       1.0  0.43527  0.16107  0.42278  1.0000
  H   H13       1.0  0.88274  0.40730  0.00607  1.0000
  H   H14       1.0  0.38262  0.09577  0.98748  1.0000
  H   H15       1.0  0.92321  0.44171  0.03003  1.0000
  H   H16       1.0  0.42384  0.06331  0.01063  1.0000
  H   H17       1.0  0.67400  0.14780  0.43499  1.0000
  H   H18       1.0  0.33186  0.14572  0.14918  1.0000
  H   H19       1.0  0.17127  0.65007  0.38235  1.0000
  H   H20       1.0  0.32974  0.85444  0.07146  1.0000
  H   H21       1.0  0.83105  0.34993  0.10167  1.0000
  H   H22       1.0  0.17165  0.34804  0.44682  1.0000
  H   H23       1.0  0.71794  0.17421  0.45619  1.0000
  H   H24       1.0  0.28949  0.17032  0.16225  1.0000
  H   H25       1.0  0.21337  0.67614  0.37475  1.0000
  H   H26       1.0  0.28552  0.82882  0.04929  1.0000
  H   H27       1.0  0.78877  0.32354  0.10705  1.0000
  H   H28       1.0  0.21524  0.32085  0.46631  1.0000
  H   H29       1.0  0.67065  0.25451  0.09777  1.0000
  H   H30       1.0  0.33292  0.26398  0.36090  1.0000
  H   H31       1.0  0.16512  0.76301  0.09597  1.0000
  H   H32       1.0  0.33225  0.74913  0.41609  1.0000
  H   H33       1.0  0.83863  0.24125  0.43123  1.0000
  H   H34       1.0  0.16684  0.24522  0.07767  1.0000
  H   H35       1.0  0.62716  0.22799  0.07754  1.0000
  H   H36       1.0  0.37488  0.23927  0.34713  1.0000
  H   H37       1.0  0.12346  0.73719  0.10856  1.0000
  H   H38       1.0  0.37596  0.77527  0.43928  1.0000
  H   H39       1.0  0.88046  0.26773  0.42518  1.0000
  H   H40       1.0  0.12371  0.27248  0.05882  1.0000
  H   H41       1.0  0.60312  0.18526  0.14589  1.0000
  H   H42       1.0  0.39883  0.19341  0.28458  1.0000
  H   H43       1.0  0.10127  0.69315  0.19490  1.0000
  H   H44       1.0  0.89748  0.69276  0.27189  1.0000
  H   H45       1.0  0.40030  0.82007  0.37440  1.0000
  H   H46       1.0  0.60121  0.80920  0.21491  1.0000
  H   H47       1.0  0.90257  0.31193  0.34200  1.0000
  H   H48       1.0  0.10022  0.31675  0.12982  1.0000
  H   H49       1.0  0.50086  0.88569  0.24682  1.0000
  H   H50       1.0  0.00080  0.38563  0.26062  1.0000
  H   H51       1.0  0.50068  0.11817  0.25323  1.0000
  H   H52       1.0  0.00080  0.61809  0.24741  1.0000
  H   H53       1.0  0.56034  0.96812  0.70221  1.0000
  H   H54       1.0  0.44017  0.96628  0.80054  1.0000
  H   H55       1.0  0.06015  0.46586  0.71329  1.0000
  H   H56       1.0  0.94011  0.46979  0.81384  1.0000
  H   H57       1.0  0.44014  0.02798  0.80729  1.0000
  H   H58       1.0  0.55984  0.02988  0.70283  1.0000
  H   H59       1.0  0.94064  0.53152  0.80728  1.0000
  H   H60       1.0  0.06092  0.52759  0.71139  1.0000
  H   H61       1.0  0.02167  0.36980  0.56410  1.0000
  H   H62       1.0  0.97414  0.37162  0.94833  1.0000
  H   H63       1.0  0.47386  0.12776  0.92237  1.0000
  H   H64       1.0  0.97618  0.62861  0.92804  1.0000
  H   H65       1.0  0.06064  0.33538  0.57932  1.0000
  H   H66       1.0  0.93346  0.33967  0.92479  1.0000
  H   H67       1.0  0.43267  0.16009  0.89077  1.0000
  H   H68       1.0  0.93548  0.66112  0.90428  1.0000
  H   H69       1.0  0.11672  0.39895  0.00970  1.0000
  H   H70       1.0  0.88079  0.40643  0.49677  1.0000
  H   H71       1.0  0.38059  0.08880  0.49012  1.0000
  H   H72       1.0  0.88234  0.59359  0.48460  1.0000
  H   H73       1.0  0.07692  0.43393  0.99415  1.0000
  H   H74       1.0  0.92217  0.43908  0.52271  1.0000
  H   H75       1.0  0.42226  0.05653  0.51961  1.0000
  H   H76       1.0  0.92351  0.56042  0.51057  1.0000
  H   H77       1.0  0.66839  0.15230  0.92566  1.0000
  H   H78       1.0  0.17050  0.64604  0.89165  1.0000
  H   H79       1.0  0.32901  0.84988  0.57972  1.0000
  H   H80       1.0  0.82653  0.35443  0.60579  1.0000
  H   H81       1.0  0.71174  0.17981  0.94331  1.0000
  H   H82       1.0  0.21303  0.67117  0.88419  1.0000
  H   H83       1.0  0.28522  0.82397  0.56262  1.0000
  H   H84       1.0  0.78344  0.32923  0.60411  1.0000
  H   H85       1.0  0.66264  0.25695  0.56781  1.0000
  H   H86       1.0  0.16604  0.75918  0.61117  1.0000
  H   H87       1.0  0.33275  0.74493  0.93045  1.0000
  H   H88       1.0  0.83069  0.24385  0.91129  1.0000
  H   H89       1.0  0.61970  0.22942  0.55266  1.0000
  H   H90       1.0  0.12398  0.73416  0.62217  1.0000
  H   H91       1.0  0.37619  0.77125  0.94803  1.0000
  H   H92       1.0  0.87329  0.26898  0.90978  1.0000
  H   H93       1.0  0.59689  0.18463  0.62627  1.0000
  H   H94       1.0  0.39494  0.18960  0.76405  1.0000
  H   H95       1.0  0.10116  0.68995  0.70357  1.0000
  H   H96       1.0  0.89904  0.69241  0.77339  1.0000
  H   H97       1.0  0.39994  0.81392  0.87106  1.0000
  H   H98       1.0  0.60219  0.80841  0.70049  1.0000
  H   H99       1.0  0.89689  0.31211  0.83762  1.0000
  H   H100      1.0  0.09610  0.31155  0.61091  1.0000
  H   H101      1.0  0.50085  0.88181  0.74764  1.0000
  H   H102      1.0  0.99821  0.38229  0.75663  1.0000
  H   H103      1.0  0.49927  0.11429  0.75616  1.0000
  H   H104      1.0  0.00125  0.61484  0.74815  1.0000
  C   C1        1.0  0.52460  0.92996  0.25808  1.0000
  C   C2        1.0  0.47733  0.92999  0.23898  1.0000
  C   C3        1.0  0.02457  0.42958  0.26893  1.0000
  C   C4        1.0  0.97765  0.43010  0.25514  1.0000
  C   C5        1.0  0.47748  0.07377  0.24771  1.0000
  C   C6        1.0  0.52429  0.07391  0.25978  1.0000
  C   C7        1.0  0.97755  0.57392  0.24560  1.0000
  C   C8        1.0  0.02442  0.57371  0.25748  1.0000
  C   C9        1.0  0.52411  0.96584  0.24806  1.0000
  C   C10       1.0  0.47781  0.96580  0.25152  1.0000
  C   C11       1.0  0.02429  0.46546  0.25827  1.0000
  C   C12       1.0  0.97823  0.46596  0.26503  1.0000
  C   C13       1.0  0.47798  0.03790  0.25652  1.0000
  C   C14       1.0  0.52401  0.03806  0.24963  1.0000
  C   C15       1.0  0.97818  0.53811  0.25999  1.0000
  C   C16       1.0  0.02412  0.53778  0.25146  1.0000
  C   C17       1.0  0.54530  0.98481  0.22657  1.0000
  C   C18       1.0  0.45662  0.98452  0.27488  1.0000
  C   C19       1.0  0.04545  0.48409  0.23449  1.0000
  C   C20       1.0  0.95714  0.48502  0.28743  1.0000
  C   C21       1.0  0.45681  0.01900  0.27835  1.0000
  C   C22       1.0  0.54532  0.01932  0.22780  1.0000
  C   C23       1.0  0.95718  0.51951  0.28569  1.0000
  C   C24       1.0  0.04536  0.51862  0.23123  1.0000
  C   C25       1.0  0.95340  0.41023  0.23838  1.0000
  C   C26       1.0  0.45306  0.09340  0.23188  1.0000
  C   C27       1.0  0.95670  0.38031  0.34005  1.0000
  C   C28       1.0  0.45571  0.12209  0.34106  1.0000
  C   C29       1.0  0.93418  0.36124  0.32766  1.0000
  C   C30       1.0  0.43268  0.14041  0.32788  1.0000
  C   C31       1.0  0.90700  0.37107  0.20796  1.0000
  C   C32       1.0  0.40585  0.13081  0.20165  1.0000
  C   C33       1.0  0.90367  0.40035  0.10142  1.0000
  C   C34       1.0  0.40319  0.10264  0.08852  1.0000
  C   C35       1.0  0.92631  0.41956  0.11644  1.0000
  C   C36       1.0  0.42629  0.08448  0.10261  1.0000
  C   C37       1.0  0.67368  0.17106  0.36214  1.0000
  C   C38       1.0  0.33168  0.17149  0.19529  1.0000
  C   C39       1.0  0.17032  0.67479  0.32090  1.0000
  C   C40       1.0  0.32975  0.83142  0.14522  1.0000
  C   C41       1.0  0.83230  0.32636  0.17425  1.0000
  C   C42       1.0  0.17101  0.32566  0.36663  1.0000
  C   C43       1.0  0.69793  0.18569  0.37388  1.0000
  C   C44       1.0  0.30830  0.18514  0.20244  1.0000
  C   C45       1.0  0.19360  0.68928  0.31631  1.0000
  C   C46       1.0  0.30538  0.81714  0.13301  1.0000
  C   C47       1.0  0.80898  0.31171  0.17713  1.0000
  C   C48       1.0  0.19507  0.31062  0.37705  1.0000
  C   C49       1.0  0.69718  0.21606  0.27840  1.0000
  C   C50       1.0  0.30835  0.21881  0.26265  1.0000
  C   C51       1.0  0.19214  0.72144  0.23492  1.0000
  C   C52       1.0  0.30588  0.78709  0.23029  1.0000
  C   C53       1.0  0.81093  0.28085  0.27138  1.0000
  C   C54       1.0  0.19395  0.28147  0.27174  1.0000
  C   C55       1.0  0.67129  0.23137  0.17228  1.0000
  C   C56       1.0  0.33280  0.23815  0.31489  1.0000
  C   C57       1.0  0.16639  0.73850  0.15987  1.0000
  C   C58       1.0  0.33176  0.77197  0.33968  1.0000
  C   C59       1.0  0.83708  0.26497  0.35950  1.0000
  C   C60       1.0  0.16780  0.26758  0.15866  1.0000
  C   C61       1.0  0.64712  0.21641  0.16097  1.0000
  C   C62       1.0  0.35617  0.22418  0.30713  1.0000
  C   C63       1.0  0.14320  0.72386  0.16670  1.0000
  C   C64       1.0  0.35610  0.78672  0.35239  1.0000
  C   C65       1.0  0.86035  0.27992  0.35592  1.0000
  C   C66       1.0  0.14380  0.28298  0.14849  1.0000
  C   C67       1.0  0.64782  0.18617  0.25469  1.0000
  C   C68       1.0  0.35605  0.19075  0.24715  1.0000
  C   C69       1.0  0.14466  0.69186  0.24675  1.0000
  C   C70       1.0  0.35554  0.81653  0.25563  1.0000
  C   C71       1.0  0.85846  0.31086  0.26512  1.0000
  C   C72       1.0  0.14489  0.31229  0.25045  1.0000
  C   C73       1.0  0.72166  0.23010  0.28332  1.0000
  C   C74       1.0  0.28440  0.23239  0.26883  1.0000
  C   C75       1.0  0.21585  0.73586  0.22923  1.0000
  C   C76       1.0  0.78176  0.73067  0.24008  1.0000
  C   C77       1.0  0.28127  0.77321  0.22441  1.0000
  C   C78       1.0  0.71453  0.76580  0.22781  1.0000
  C   C79       1.0  0.78719  0.26674  0.27760  1.0000
  C   C80       1.0  0.21833  0.26753  0.27426  1.0000
  C   C81       1.0  0.74288  0.24211  0.28263  1.0000
  C   C82       1.0  0.26303  0.24371  0.27082  1.0000
  C   C83       1.0  0.23688  0.74806  0.22628  1.0000
  C   C84       1.0  0.75994  0.74167  0.23651  1.0000
  C   C85       1.0  0.26002  0.76127  0.22511  1.0000
  C   C86       1.0  0.73621  0.75418  0.23203  1.0000
  C   C87       1.0  0.76605  0.25505  0.28095  1.0000
  C   C88       1.0  0.23971  0.25616  0.27260  1.0000
  C   C89       1.0  0.62188  0.17170  0.23887  1.0000
  C   C90       1.0  0.38083  0.17648  0.24177  1.0000
  C   C91       1.0  0.11990  0.67711  0.25015  1.0000
  C   C92       1.0  0.87960  0.67561  0.22958  1.0000
  C   C93       1.0  0.38127  0.83149  0.27095  1.0000
  C   C94       1.0  0.61950  0.82564  0.25539  1.0000
  C   C95       1.0  0.88332  0.32631  0.26870  1.0000
  C   C96       1.0  0.11928  0.32801  0.23373  1.0000
  C   C97       1.0  0.50098  0.98380  0.25068  1.0000
  C   C98       1.0  0.00127  0.48373  0.26052  1.0000
  C   C99       1.0  0.50098  0.01996  0.25201  1.0000
  C   C100      1.0  0.00122  0.51993  0.25764  1.0000
  C   C101      1.0  0.50094  0.91317  0.24795  1.0000
  C   C102      1.0  0.00100  0.41308  0.26155  1.0000
  C   C103      1.0  0.50081  0.09070  0.25326  1.0000
  C   C104      1.0  0.00088  0.59062  0.24957  1.0000
  C   C105      1.0  0.52404  0.92646  0.75696  1.0000
  C   C106      1.0  0.47705  0.92580  0.74291  1.0000
  C   C107      1.0  0.02251  0.42579  0.76333  1.0000
  C   C108      1.0  0.97595  0.42729  0.75654  1.0000
  C   C109      1.0  0.47604  0.06982  0.74786  1.0000
  C   C110      1.0  0.52300  0.07032  0.76109  1.0000
  C   C111      1.0  0.97735  0.57124  0.74520  1.0000
  C   C112      1.0  0.02445  0.56996  0.76124  1.0000
  C   C113      1.0  0.52338  0.96233  0.74842  1.0000
  C   C114      1.0  0.47733  0.96165  0.75517  1.0000
  C   C115      1.0  0.02284  0.46172  0.75674  1.0000
  C   C116      1.0  0.97697  0.46316  0.76660  1.0000
  C   C117      1.0  0.47688  0.03392  0.75851  1.0000
  C   C118      1.0  0.52282  0.03448  0.74978  1.0000
  C   C119      1.0  0.97765  0.53541  0.76043  1.0000
  C   C120      1.0  0.02377  0.53405  0.75476  1.0000
  C   C121      1.0  0.54432  0.98150  0.72525  1.0000
  C   C122      1.0  0.45612  0.98017  0.77941  1.0000
  C   C123      1.0  0.04432  0.47998  0.73487  1.0000
  C   C124      1.0  0.95615  0.48277  0.78944  1.0000
  C   C125      1.0  0.45601  0.01467  0.78219  1.0000
  C   C126      1.0  0.54404  0.01600  0.72568  1.0000
  C   C127      1.0  0.95645  0.51727  0.78601  1.0000
  C   C128      1.0  0.04477  0.51449  0.73403  1.0000
  C   C129      1.0  0.95131  0.40805  0.73966  1.0000
  C   C130      1.0  0.04624  0.40509  0.77440  1.0000
  C   C131      1.0  0.45128  0.08940  0.72592  1.0000
  C   C132      1.0  0.95298  0.59164  0.72391  1.0000
  C   C133      1.0  0.04244  0.37617  0.66413  1.0000
  C   C134      1.0  0.95374  0.37898  0.84620  1.0000
  C   C135      1.0  0.45350  0.11963  0.82331  1.0000
  C   C136      1.0  0.95574  0.62126  0.82694  1.0000
  C   C137      1.0  0.06461  0.35661  0.67285  1.0000
  C   C138      1.0  0.93065  0.36075  0.83179  1.0000
  C   C139      1.0  0.43021  0.13802  0.80466  1.0000
  C   C140      1.0  0.93277  0.63991  0.81213  1.0000
  C   C141      1.0  0.09196  0.36509  0.79539  1.0000
  C   C142      1.0  0.90380  0.37082  0.70693  1.0000
  C   C143      1.0  0.40343  0.12685  0.68564  1.0000
  C   C144      1.0  0.90585  0.62982  0.68983  1.0000
  C   C145      1.0  0.09574  0.39317  0.91097  1.0000
  C   C146      1.0  0.90142  0.39927  0.59607  1.0000
  C   C147      1.0  0.40118  0.09713  0.58408  1.0000
  C   C148      1.0  0.90305  0.60091  0.58164  1.0000
  C   C149      1.0  0.07347  0.41274  0.90087  1.0000
  C   C150      1.0  0.92458  0.41748  0.61183  1.0000
  C   C151      1.0  0.42453  0.07903  0.60241  1.0000
  C   C152      1.0  0.92610  0.58237  0.59762  1.0000
  C   C153      1.0  0.66765  0.17522  0.84921  1.0000
  C   C154      1.0  0.16999  0.67077  0.83148  1.0000
  C   C155      1.0  0.32938  0.82702  0.65572  1.0000
  C   C156      1.0  0.82704  0.33026  0.67137  1.0000
  C   C157      1.0  0.69150  0.19046  0.85885  1.0000
  C   C158      1.0  0.19345  0.68474  0.82728  1.0000
  C   C159      1.0  0.30521  0.81256  0.64599  1.0000
  C   C160      1.0  0.80322  0.31625  0.67040  1.0000
  C   C161      1.0  0.69004  0.22039  0.75850  1.0000
  C   C162      1.0  0.19241  0.71703  0.74854  1.0000
  C   C163      1.0  0.30607  0.78253  0.74421  1.0000
  C   C164      1.0  0.80418  0.28481  0.75742  1.0000
  C   C165      1.0  0.66378  0.23441  0.64787  1.0000
  C   C166      1.0  0.16691  0.73462  0.67372  1.0000
  C   C167      1.0  0.33205  0.76765  0.85289  1.0000
  C   C168      1.0  0.82984  0.26782  0.84324  1.0000
  C   C169      1.0  0.63995  0.21884  0.63893  1.0000
  C   C170      1.0  0.14353  0.72043  0.67953  1.0000
  C   C171      1.0  0.35618  0.78252  0.86269  1.0000
  C   C172      1.0  0.85355  0.28208  0.84279  1.0000
  C   C173      1.0  0.64147  0.18914  0.73872  1.0000
  C   C174      1.0  0.14460  0.68841  0.75833  1.0000
  C   C175      1.0  0.35530  0.81224  0.76452  1.0000
  C   C176      1.0  0.85271  0.31344  0.75827  1.0000
  C   C177      1.0  0.71438  0.23506  0.76507  1.0000
  C   C178      1.0  0.28013  0.22443  0.75295  1.0000
  C   C179      1.0  0.21628  0.73110  0.74418  1.0000
  C   C180      1.0  0.78500  0.73385  0.75122  1.0000
  C   C181      1.0  0.28161  0.76837  0.73873  1.0000
  C   C182      1.0  0.71805  0.77003  0.73720  1.0000
  C   C183      1.0  0.78020  0.27123  0.76235  1.0000
  C   C184      1.0  0.21385  0.25977  0.75422  1.0000
  C   C185      1.0  0.73591  0.24685  0.76843  1.0000
  C   C186      1.0  0.25884  0.23550  0.75709  1.0000
  C   C187      1.0  0.23731  0.74311  0.74067  1.0000
  C   C188      1.0  0.76332  0.74563  0.74582  1.0000
  C   C189      1.0  0.26038  0.75636  0.73914  1.0000
  C   C190      1.0  0.73970  0.75849  0.74092  1.0000
  C   C191      1.0  0.75913  0.25968  0.76733  1.0000
  C   C192      1.0  0.23544  0.24803  0.75774  1.0000
  C   C193      1.0  0.61627  0.17310  0.72511  1.0000
  C   C194      1.0  0.37733  0.17202  0.72078  1.0000
  C   C195      1.0  0.11976  0.67388  0.76067  1.0000
  C   C196      1.0  0.88101  0.67550  0.73137  1.0000
  C   C197      1.0  0.38095  0.82687  0.77663  1.0000
  C   C198      1.0  0.62036  0.82515  0.74713  1.0000
  C   C199      1.0  0.87826  0.32762  0.76476  1.0000
  C   C200      1.0  0.11549  0.32283  0.71106  1.0000
  C   C201      1.0  0.50025  0.98000  0.75270  1.0000
  C   C202      1.0  0.00018  0.48047  0.76165  1.0000
  C   C203      1.0  0.50001  0.01619  0.75416  1.0000
  C   C204      1.0  0.00056  0.51669  0.75936  1.0000
  C   C205      1.0  0.50066  0.90929  0.74926  1.0000
  C   C206      1.0  0.99888  0.40975  0.75891  1.0000
  C   C207      1.0  0.49944  0.08683  0.75527  1.0000
  C   C208      1.0  0.00099  0.58737  0.75098  1.0000
  N   N1        1.0  0.62118  0.14502  0.32965  1.0000
  N   N2        1.0  0.38144  0.14572  0.18978  1.0000
  N   N3        1.0  0.11988  0.64710  0.31353  1.0000
  N   N4        1.0  0.88055  0.64478  0.17943  1.0000
  N   N5        1.0  0.38130  0.85673  0.16856  1.0000
  N   N6        1.0  0.61969  0.85644  0.30961  1.0000
  N   N7        1.0  0.88268  0.35523  0.19195  1.0000
  N   N8        1.0  0.11940  0.35356  0.33469  1.0000
  N   N9        1.0  0.61712  0.14686  0.82356  1.0000
  N   N10       1.0  0.37869  0.14121  0.67161  1.0000
  N   N11       1.0  0.11984  0.64397  0.82565  1.0000
  N   N12       1.0  0.88146  0.64472  0.67892  1.0000
  N   N13       1.0  0.38104  0.85316  0.68119  1.0000
  N   N14       1.0  0.61995  0.85564  0.80361  1.0000
  N   N15       1.0  0.87889  0.35636  0.69012  1.0000
  N   N16       1.0  0.11616  0.34876  0.81110  1.0000
  C  Sn1       1.0  0.05028  0.61862  0.62879  1.0000
  C   C209      1.0  0.04976  0.59046  0.73195  1.0000
  C  Sn2       1.0  0.07269  0.58250  0.89506  1.0000
  C  Sn3       1.0  0.09664  0.60313  0.95642  1.0000
  C   C210      1.0  0.09715  0.63128  0.85330  1.0000
  C  Sn4       1.0  0.07422  0.63925  0.69014  1.0000
  O  Te1       1.0  0.02711  0.62610  0.46615  1.0000
  O  Te2       1.0  0.07168  0.55421  0.99582  1.0000
  O  Te3       1.0  0.05578  0.59572  0.11919  1.0000
  O  Te4       1.0  0.07522  0.66753  0.58944  1.0000
  Mg  Mg1       1.0  0.04441  0.55453  0.20845  1.0000
  Mg  Mg2       1.0  0.03847  0.66733  0.37684  1.0000
  C  Sn5       1.0  0.83401  0.73932  0.24642  1.0000
  C   C211      1.0  0.80870  0.72326  0.20285  1.0000
  C  Sn6       1.0  0.80676  0.68812  0.18860  1.0000
  C  Sn7       1.0  0.83062  0.66863  0.21865  1.0000
  C   C212      1.0  0.85592  0.68469  0.26222  1.0000
  C  Sn8       1.0  0.85787  0.71983  0.27647  1.0000
  O  Te5       1.0  0.83547  0.77448  0.25995  1.0000
  O  Te6       1.0  0.78122  0.67262  0.14482  1.0000
  O  Te7       1.0  0.82914  0.63344  0.20507  1.0000
  O  Te8       1.0  0.88339  0.73532  0.32026  1.0000
  Mg  Mg3       1.0  0.78973  0.62401  0.14220  1.0000
  Mg  Mg4       1.0  0.87491  0.78393  0.32300  1.0000
  C  Sn9       1.0  0.08262  0.42081  0.38643  1.0000
  C   C213      1.0  0.05458  0.41553  0.27359  1.0000
  C  Sn10      1.0  0.04548  0.38439  0.18766  1.0000
  C  Sn11      1.0  0.06480  0.35795  0.21517  1.0000
  C   C214      1.0  0.09282  0.36323  0.32798  1.0000
  C  Sn12      1.0  0.10195  0.39437  0.41394  1.0000
  O  Te9       1.0  0.09126  0.45215  0.47096  1.0000
  O  Te10      1.0  0.01734  0.37972  0.07542  1.0000
  O  Te11      1.0  0.05614  0.32660  0.13052  1.0000
  O  Te12      1.0  0.13007  0.39904  0.52615  1.0000
  Mg  Mg5       1.0  0.07971  0.33243  0.99032  1.0000
  Mg  Mg6       1.0  0.13175  0.44623  0.61138  1.0000
  C  Sn13      1.0  0.45284  0.86914  0.28705  1.0000
  C   C215      1.0  0.45322  0.89887  0.19457  1.0000
  C  Sn14      1.0  0.42893  0.91742  0.10191  1.0000
  C  Sn15      1.0  0.40374  0.90603  0.10176  1.0000
  C   C216      1.0  0.40337  0.87632  0.19422  1.0000
  C  Sn16      1.0  0.42765  0.85775  0.28690  1.0000
  O  Te13      1.0  0.47737  0.85100  0.37878  1.0000
  O  Te14      1.0  0.42982  0.94706  0.01037  1.0000
  O  Te15      1.0  0.37920  0.92420  0.00992  1.0000
  O  Te16      1.0  0.42676  0.82813  0.37842  1.0000
  Mg  Mg7       1.0  0.45499  0.96291  0.90523  1.0000
  Mg  Mg8       1.0  0.46561  0.81218  0.48368  1.0000
  C  Sn17      1.0  0.64871  0.76861  0.22379  1.0000
  C   C217      1.0  0.64612  0.80120  0.28131  1.0000
  C  Sn18      1.0  0.66571  0.82592  0.29850  1.0000
  C  Sn19      1.0  0.68836  0.81791  0.25722  1.0000
  C   C218      1.0  0.69094  0.78533  0.19972  1.0000
  C  Sn20      1.0  0.67136  0.76060  0.18252  1.0000
  O  Te17      1.0  0.62888  0.74430  0.20757  1.0000
  O  Te18      1.0  0.66268  0.85833  0.35631  1.0000
  O  Te19      1.0  0.70820  0.84225  0.27350  1.0000
  O  Te20      1.0  0.67438  0.72821  0.12472  1.0000
  Mg  Mg9       1.0  0.69507  0.88278  0.35722  1.0000
  Mg  Mg10      1.0  0.64200  0.70374  0.12366  1.0000
  C  Sn21      1.0  0.54885  0.86915  0.20339  1.0000
  C   C219      1.0  0.54858  0.89826  0.30087  1.0000
  C  Sn22      1.0  0.57284  0.91672  0.39421  1.0000
  C  Sn23      1.0  0.59790  0.90588  0.38994  1.0000
  C   C220      1.0  0.59817  0.87679  0.29249  1.0000
  C  Sn24      1.0  0.57392  0.85831  0.19913  1.0000
  O  Te21      1.0  0.52435  0.85109  0.11107  1.0000
  O  Te22      1.0  0.57205  0.94574  0.49077  1.0000
  O  Te23      1.0  0.62242  0.92397  0.48238  1.0000
  O  Te24      1.0  0.57470  0.82931  0.10259  1.0000
  Mg  Mg11      1.0  0.61083  0.96183  0.59471  1.0000
  Mg  Mg12      1.0  0.59997  0.81313  0.99853  1.0000
  C  Sn25      1.0  0.55907  0.14314  0.71748  1.0000
  C   C221      1.0  0.58722  0.13732  0.82518  1.0000
  C  Sn26      1.0  0.59641  0.10569  0.90484  1.0000
  C  Sn27      1.0  0.57705  0.07932  0.87618  1.0000
  C   C222      1.0  0.54892  0.08515  0.76852  1.0000
  C  Sn28      1.0  0.53972  0.11678  0.68882  1.0000
  O  Te25      1.0  0.55036  0.17496  0.63917  1.0000
  O  Te26      1.0  0.56062  0.10056  0.01201  1.0000
  O  Te27      1.0  0.58579  0.04749  0.95461  1.0000
  O  Te28      1.0  0.51149  0.12199  0.58169  1.0000
  Mg  Mg13      1.0  0.56236  0.05285  0.08949  1.0000
  Mg  Mg14      1.0  0.50973  0.16969  0.50407  1.0000
  C  Sn29      1.0  0.35036  0.21993  0.84458  1.0000
  C   C223      1.0  0.35400  0.18834  0.78049  1.0000
  C  Sn30      1.0  0.33114  0.16815  0.67862  1.0000
  C  Sn31      1.0  0.30407  0.17980  0.63989  1.0000
  C   C224      1.0  0.30044  0.21137  0.70393  1.0000
  C  Sn32      1.0  0.32329  0.23157  0.80585  1.0000
  O  Te29      1.0  0.37350  0.23968  0.94615  1.0000
  O  Te30      1.0  0.33530  0.13666  0.61607  1.0000
  O  Te31      1.0  0.28092  0.16001  0.53823  1.0000
  O  Te32      1.0  0.31914  0.26305  0.86835  1.0000
  Mg  Mg15      1.0  0.29722  0.11898  0.48305  1.0000
  Mg  Mg16      1.0  0.29317  0.28084  0.00129  1.0000
  C  Sn33      1.0  0.69176  0.81871  0.85578  1.0000
  C   C225      1.0  0.69543  0.78677  0.79547  1.0000
  C  Sn34      1.0  0.67254  0.76697  0.68940  1.0000
  C  Sn35      1.0  0.64542  0.77936  0.64252  1.0000
  C   C226      1.0  0.64176  0.81128  0.70279  1.0000
  C  Sn36      1.0  0.66464  0.83109  0.80890  1.0000
  O  Te33      1.0  0.71494  0.83807  0.96167  1.0000
  O  Te34      1.0  0.67673  0.73512  0.63076  1.0000
  O  Te35      1.0  0.62223  0.75997  0.53655  1.0000
  O  Te36      1.0  0.66047  0.86293  0.86750  1.0000
  Mg  Mg17      1.0  0.63859  0.71822  0.48931  1.0000
  Mg  Mg18      1.0  0.63455  0.87995  0.00886  1.0000
  C  Sn37      1.0  0.18738  0.30428  0.89585  1.0000
  C   C227      1.0  0.18965  0.27532  0.80384  1.0000
  C  Sn38      1.0  0.16657  0.26269  0.65471  1.0000
  C  Sn39      1.0  0.14068  0.27936  0.59623  1.0000
  C   C228      1.0  0.13841  0.30831  0.68819  1.0000
  C  Sn40      1.0  0.16148  0.32095  0.83737  1.0000
  O  Te37      1.0  0.14669  0.31655  0.04459  1.0000
  O  Te38      1.0  0.16935  0.23369  0.56494  1.0000
  O  Te39      1.0  0.11732  0.26715  0.44736  1.0000
  O  Te40      1.0  0.15871  0.34994  0.92709  1.0000
  Mg  Mg19      1.0  0.13155  0.22685  0.36945  1.0000
  Mg  Mg20      1.0  0.13247  0.35690  0.12253  1.0000
  C  Sn41      1.0  0.56318  0.86922  0.62101  1.0000
  C   C229      1.0  0.59099  0.87433  0.74014  1.0000
  C  Sn42      1.0  0.59818  0.89415  0.89748  1.0000
  C  Sn43      1.0  0.57714  0.90916  0.93666  1.0000
  C   C230      1.0  0.54936  0.90404  0.81759  1.0000
  C  Sn44      1.0  0.54214  0.88423  0.66018  1.0000
  O  Te41      1.0  0.55647  0.84931  0.46451  1.0000
  O  Te42      1.0  0.56209  0.89899  0.01449  1.0000
  O  Te43      1.0  0.51985  0.92917  0.09331  1.0000
  O  Te44      1.0  0.51422  0.87947  0.54324  1.0000
  Mg  Mg21      1.0  0.56082  0.92820  0.21063  1.0000
  Mg  Mg22      1.0  0.51547  0.85025  0.34712  1.0000
  C  Sn45      1.0  0.58038  0.09380  0.46088  1.0000
  C   C231      1.0  0.55283  0.09820  0.33452  1.0000
  C  Sn46      1.0  0.54636  0.11767  0.17667  1.0000
  C  Sn47      1.0  0.56787  0.13305  0.14438  1.0000
  C   C232      1.0  0.59540  0.12864  0.27068  1.0000
  C  Sn48      1.0  0.60189  0.10918  0.42859  1.0000
  O  Te45      1.0  0.58637  0.07423  0.61775  1.0000
  O  Te46      1.0  0.51867  0.12172  0.05236  1.0000
  O  Te47      1.0  0.62589  0.15254  0.98736  1.0000
  O  Te48      1.0  0.62956  0.10512  0.55283  1.0000
  Mg  Mg23      1.0  0.58501  0.15061  0.85874  1.0000
  Mg  Mg24      1.0  0.62728  0.07614  0.74645  1.0000
  C  Sn49      1.0  0.92082  0.59235  0.04707  1.0000
  C   C233      1.0  0.94844  0.59786  0.16877  1.0000
  C  Sn50      1.0  0.95504  0.61856  0.32233  1.0000
  C  Sn51      1.0  0.93357  0.63406  0.35500  1.0000
  C   C234      1.0  0.90597  0.62854  0.23336  1.0000
  C  Sn52      1.0  0.89935  0.60785  0.07974  1.0000
  O  Te49      1.0  0.97874  0.57147  0.89444  1.0000
  O  Te50      1.0  0.98281  0.62371  0.44201  1.0000
  O  Te51      1.0  0.93971  0.65487  0.50777  1.0000
  O  Te52      1.0  0.93564  0.60261  0.96012  1.0000
  Mg  Mg25      1.0  0.98066  0.65414  0.63094  1.0000
  Mg  Mg26      1.0  0.93776  0.57217  0.77121  1.0000
  C  Sn53      1.0  0.40712  0.89588  0.53944  1.0000
  C   C235      1.0  0.40659  0.86780  0.64313  1.0000
  C  Sn54      1.0  0.42971  0.85955  0.80458  1.0000
  C  Sn55      1.0  0.45385  0.87979  0.86371  1.0000
  C   C236      1.0  0.45437  0.90785  0.76007  1.0000
  C  Sn56      1.0  0.43127  0.91612  0.59857  1.0000
  O  Te53      1.0  0.38377  0.90366  0.37848  1.0000
  O  Te54      1.0  0.42869  0.83135  0.90590  1.0000
  O  Te55      1.0  0.41318  0.87207  0.02481  1.0000
  O  Te56      1.0  0.43228  0.94430  0.49730  1.0000
  Mg  Mg27      1.0  0.40171  0.83115  0.11566  1.0000
  Mg  Mg28      1.0  0.39523  0.94462  0.28758  1.0000
  C  Sn57      1.0  0.08078  0.59383  0.45151  1.0000
  C   C237      1.0  0.05302  0.59812  0.32887  1.0000
  C  Sn58      1.0  0.04586  0.61820  0.17243  1.0000
  C  Sn59      1.0  0.06688  0.63431  0.13776  1.0000
  C   C238      1.0  0.09462  0.63001  0.26033  1.0000
  C  Sn60      1.0  0.10180  0.60994  0.41684  1.0000
  O  Te57      1.0  0.08746  0.57364  0.60702  1.0000
  O  Te58      1.0  0.01797  0.62213  0.05187  1.0000
  O  Te59      1.0  0.12421  0.65443  0.98210  1.0000
  O  Te60      1.0  0.12967  0.60601  0.53734  1.0000
  Mg  Mg29      1.0  0.08330  0.65204  0.85877  1.0000
  Mg  Mg30      1.0  0.12839  0.57600  0.73042  1.0000
  C  Sn61      1.0  0.83730  0.74050  0.75645  1.0000
  C   C239      1.0  0.81161  0.72543  0.71278  1.0000
  C  Sn62      1.0  0.80874  0.69039  0.69594  1.0000
  C  Sn63      1.0  0.83203  0.66998  0.72343  1.0000
  C   C240      1.0  0.85771  0.68505  0.76711  1.0000
  C  Sn64      1.0  0.86060  0.72009  0.78395  1.0000
  O  Te61      1.0  0.83969  0.77558  0.77260  1.0000
  O  Te62      1.0  0.78284  0.67590  0.65211  1.0000
  O  Te63      1.0  0.82962  0.63487  0.70724  1.0000
  O  Te64      1.0  0.88648  0.73458  0.82778  1.0000
  Mg  Mg31      1.0  0.79003  0.62698  0.64541  1.0000
  Mg  Mg32      1.0  0.87931  0.78349  0.83461  1.0000
