data_image0
_chemical_formula_structural       H60C112N16SnCSn2CSnTe4Mg2SnCSn2CSnTe4Mg2SnCSn2CSnTe4Mg2SnCSn2CSnTe4Mg2SnCSn2CSnTe4Mg2SnCSn2CSnTe4Mg2SnCSn2CSnTe4Mg2SnCSn2CSnTe4Mg2
_chemical_formula_sum              "H60 C128 N16 Sn32 Te32 Mg16"
_cell_length_a       33.9828
_cell_length_b       33.9514
_cell_length_c       8.08138
_cell_angle_alpha    90.3349
_cell_angle_beta     90.3908
_cell_angle_gamma    90.7266

_symmetry_space_group_name_H-M    'P1'
_space_group_IT_number       1

loop_
  _space_group_symop_operation_xyz
  'x, y, z'

loop_
  _atom_site_type_symbol
  _atom_site_label
  _atom_site_symmetry_multiplicity
  _atom_site_fract_x
  _atom_site_fract_y
  _atom_site_fract_z
  _atom_site_occupancy
  H   H1        1.0  0.54080  0.07645  0.85583  1.0000
  H   H2        1.0  0.54116  0.14689  0.94176  1.0000
  H   H3        1.0  0.44712  0.16991  0.59907  1.0000
  H   H4        1.0  0.44626  0.09885  0.51520  1.0000
  H   H5        1.0  0.47451  0.78781  0.41167  1.0000
  H   H6        1.0  0.51502  0.21425  0.91848  1.0000
  H   H7        1.0  0.56640  0.36588  0.11957  1.0000
  H   H8        1.0  0.43115  0.63544  0.63912  1.0000
  H   H9        1.0  0.62517  0.41935  0.12862  1.0000
  H   H10       1.0  0.37283  0.58153  0.64730  1.0000
  H   H11       1.0  0.36224  0.42701  0.35461  1.0000
  H   H12       1.0  0.63676  0.57237  0.85471  1.0000
  H   H13       1.0  0.41552  0.36918  0.34189  1.0000
  H   H14       1.0  0.58330  0.62987  0.85882  1.0000
  H   H15       1.0  0.47245  0.47740  0.22684  1.0000
  H   H16       1.0  0.52569  0.52324  0.72054  1.0000
  H   H17       1.0  0.44045  0.35389  0.59987  1.0000
  H   H18       1.0  0.43547  0.28087  0.58595  1.0000
  H   H19       1.0  0.54326  0.27241  0.86321  1.0000
  H   H20       1.0  0.54738  0.34487  0.88201  1.0000
  H   H21       1.0  0.64936  0.44414  0.40736  1.0000
  H   H22       1.0  0.35064  0.55706  0.90900  1.0000
  H   H23       1.0  0.72274  0.44692  0.40980  1.0000
  H   H24       1.0  0.27740  0.55324  0.91704  1.0000
  H   H25       1.0  0.71988  0.54649  0.08375  1.0000
  H   H26       1.0  0.27983  0.44934  0.60976  1.0000
  H   H27       1.0  0.64779  0.54404  0.08544  1.0000
  H   H28       1.0  0.35175  0.45367  0.60258  1.0000
  H   H29       1.0  0.21004  0.49083  0.08589  1.0000
  H   H30       1.0  0.78884  0.51148  0.57631  1.0000
  H   H31       1.0  0.57123  0.09078  0.48874  1.0000
  H   H32       1.0  0.43349  0.90678  0.96517  1.0000
  H   H33       1.0  0.57680  0.16299  0.44155  1.0000
  H   H34       1.0  0.42898  0.83572  0.88940  1.0000
  H   H35       1.0  0.47198  0.15833  0.14020  1.0000
  H   H36       1.0  0.53745  0.84563  0.62185  1.0000
  H   H37       1.0  0.46781  0.08529  0.17973  1.0000
  H   H38       1.0  0.53955  0.91813  0.68188  1.0000
  H   H39       1.0  0.54815  0.22186  0.36897  1.0000
  H   H40       1.0  0.45463  0.77936  0.77815  1.0000
  H   H41       1.0  0.42889  0.63196  0.12225  1.0000
  H   H42       1.0  0.57036  0.36687  0.62186  1.0000
  H   H43       1.0  0.37013  0.57896  0.12951  1.0000
  H   H44       1.0  0.62840  0.42039  0.62068  1.0000
  H   H45       1.0  0.63256  0.56983  0.36820  1.0000
  H   H46       1.0  0.36868  0.43175  0.88645  1.0000
  H   H47       1.0  0.57940  0.62766  0.36978  1.0000
  H   H48       1.0  0.42105  0.37323  0.87868  1.0000
  H   H49       1.0  0.52160  0.52084  0.23212  1.0000
  H   H50       1.0  0.47831  0.47856  0.72952  1.0000
  H   H51       1.0  0.35377  0.55860  0.41421  1.0000
  H   H52       1.0  0.28119  0.56475  0.43451  1.0000
  H   H53       1.0  0.26629  0.46044  0.13536  1.0000
  H   H54       1.0  0.33812  0.45526  0.11084  1.0000
  H   H55       1.0  0.08909  0.43154  0.51183  1.0000
  H   H56       1.0  0.16150  0.42635  0.54572  1.0000
  H   H57       1.0  0.16210  0.52819  0.86551  1.0000
  H   H58       1.0  0.08903  0.53233  0.83584  1.0000
  H   H59       1.0  0.77748  0.54868  0.13490  1.0000
  H   H60       1.0  0.22182  0.45643  0.60829  1.0000
  C   C1        1.0  0.50648  0.98833  0.19483  1.0000
  C   C2        1.0  0.49908  0.01150  0.69573  1.0000
  C   C3        1.0  0.50382  0.95482  0.08744  1.0000
  C   C4        1.0  0.50087  0.04476  0.58859  1.0000
  C   C5        1.0  0.49533  0.08373  0.67139  1.0000
  C   C6        1.0  0.52025  0.09684  0.79975  1.0000
  C   C7        1.0  0.52033  0.13637  0.84819  1.0000
  C   C8        1.0  0.49525  0.16340  0.77016  1.0000
  C   C9        1.0  0.46745  0.14913  0.65382  1.0000
  C   C10       1.0  0.46721  0.10980  0.60701  1.0000
  C   C11       1.0  0.49398  0.79504  0.30766  1.0000
  C   C12       1.0  0.49882  0.20559  0.80530  1.0000
  C   C13       1.0  0.56490  0.39642  0.15736  1.0000
  C   C14       1.0  0.43317  0.60478  0.67323  1.0000
  C   C15       1.0  0.59473  0.42354  0.16191  1.0000
  C   C16       1.0  0.40359  0.57736  0.67688  1.0000
  C   C17       1.0  0.57761  0.46017  0.21949  1.0000
  C   C18       1.0  0.42147  0.54066  0.72925  1.0000
  C   C19       1.0  0.52970  0.41666  0.21319  1.0000
  C   C20       1.0  0.46896  0.58465  0.72343  1.0000
  C   C21       1.0  0.39287  0.42962  0.32062  1.0000
  C   C22       1.0  0.60591  0.56975  0.82290  1.0000
  C   C23       1.0  0.42023  0.40004  0.31475  1.0000
  C   C24       1.0  0.57862  0.59937  0.82411  1.0000
  C   C25       1.0  0.45716  0.41700  0.26620  1.0000
  C   C26       1.0  0.54156  0.58306  0.77186  1.0000
  C   C27       1.0  0.41191  0.46576  0.27454  1.0000
  C   C28       1.0  0.58659  0.53407  0.77048  1.0000
  C   C29       1.0  0.49297  0.39740  0.23928  1.0000
  C   C30       1.0  0.50609  0.60350  0.74621  1.0000
  C   C31       1.0  0.39504  0.50319  0.25244  1.0000
  C   C32       1.0  0.60356  0.49678  0.74396  1.0000
  C   C33       1.0  0.49426  0.35515  0.74289  1.0000
  C   C34       1.0  0.64308  0.49439  0.24826  1.0000
  C   C35       1.0  0.35670  0.50532  0.75725  1.0000
  C   C36       1.0  0.46238  0.33610  0.66180  1.0000
  C   C37       1.0  0.45949  0.29533  0.65306  1.0000
  C   C38       1.0  0.48818  0.27137  0.72647  1.0000
  C   C39       1.0  0.52037  0.29006  0.80665  1.0000
  C   C40       1.0  0.52300  0.33096  0.81541  1.0000
  C   C41       1.0  0.66490  0.46626  0.33547  1.0000
  C   C42       1.0  0.33489  0.53397  0.84146  1.0000
  C   C43       1.0  0.70585  0.46772  0.33729  1.0000
  C   C44       1.0  0.29401  0.53185  0.84632  1.0000
  C   C45       1.0  0.72683  0.49712  0.25191  1.0000
  C   C46       1.0  0.27297  0.50129  0.76573  1.0000
  C   C47       1.0  0.70509  0.52451  0.15919  1.0000
  C   C48       1.0  0.29466  0.47304  0.67735  1.0000
  C   C49       1.0  0.66428  0.52313  0.15881  1.0000
  C   C50       1.0  0.33542  0.47524  0.67330  1.0000
  C   C51       1.0  0.00913  0.50457  0.32585  1.0000
  C   C52       1.0  0.98960  0.49339  0.82462  1.0000
  C   C53       1.0  0.04317  0.50273  0.42986  1.0000
  C   C54       1.0  0.95559  0.49565  0.92667  1.0000
  C   C55       1.0  0.20214  0.50539  0.20304  1.0000
  C   C56       1.0  0.79664  0.49567  0.69029  1.0000
  C   C57       1.0  0.50768  0.01198  0.30996  1.0000
  C   C58       1.0  0.49814  0.98804  0.81049  1.0000
  C   C59       1.0  0.50850  0.04483  0.42049  1.0000
  C   C60       1.0  0.49679  0.95503  0.91872  1.0000
  C   C61       1.0  0.51782  0.08407  0.34615  1.0000
  C   C62       1.0  0.48817  0.91626  0.83667  1.0000
  C   C63       1.0  0.55011  0.10560  0.40990  1.0000
  C   C64       1.0  0.45553  0.89364  0.88598  1.0000
  C   C65       1.0  0.55293  0.14597  0.38438  1.0000
  C   C66       1.0  0.45330  0.85384  0.84484  1.0000
  C   C67       1.0  0.52358  0.16559  0.29433  1.0000
  C   C68       1.0  0.48410  0.83571  0.75890  1.0000
  C   C69       1.0  0.49393  0.14305  0.21360  1.0000
  C   C70       1.0  0.51457  0.85947  0.69440  1.0000
  C   C71       1.0  0.49160  0.10252  0.23658  1.0000
  C   C72       1.0  0.51577  0.89963  0.72876  1.0000
  C   C73       1.0  0.52392  0.20842  0.29646  1.0000
  C   C74       1.0  0.48323  0.79295  0.74782  1.0000
  C   C75       1.0  0.43036  0.60170  0.16238  1.0000
  C   C76       1.0  0.56855  0.39753  0.65767  1.0000
  C   C77       1.0  0.40051  0.57461  0.16460  1.0000
  C   C78       1.0  0.59820  0.42485  0.65718  1.0000
  C   C79       1.0  0.41746  0.53804  0.22360  1.0000
  C   C80       1.0  0.58129  0.46168  0.71489  1.0000
  C   C81       1.0  0.46528  0.58174  0.22211  1.0000
  C   C82       1.0  0.53370  0.41764  0.71620  1.0000
  C   C83       1.0  0.60170  0.56752  0.33549  1.0000
  C   C84       1.0  0.39895  0.43346  0.84658  1.0000
  C   C85       1.0  0.57439  0.59712  0.33663  1.0000
  C   C86       1.0  0.42586  0.40352  0.84288  1.0000
  C   C87       1.0  0.53727  0.58077  0.28442  1.0000
  C   C88       1.0  0.46232  0.41925  0.78350  1.0000
  C   C89       1.0  0.58228  0.53196  0.28251  1.0000
  C   C90       1.0  0.41792  0.46860  0.78898  1.0000
  C   C91       1.0  0.50186  0.60093  0.25353  1.0000
  C   C92       1.0  0.49721  0.39866  0.74834  1.0000
  C   C93       1.0  0.59954  0.49509  0.25069  1.0000
  C   C94       1.0  0.40021  0.50534  0.75866  1.0000
  C   C95       1.0  0.35172  0.50646  0.26107  1.0000
  C   C96       1.0  0.33456  0.53772  0.34960  1.0000
  C   C97       1.0  0.29403  0.54115  0.36205  1.0000
  C   C98       1.0  0.26845  0.51375  0.28396  1.0000
  C   C99       1.0  0.28524  0.48228  0.19592  1.0000
  C   C100      1.0  0.32589  0.47899  0.18431  1.0000
  C   C101      1.0  0.98568  0.50500  0.20969  1.0000
  C   C102      1.0  0.01321  0.49291  0.71055  1.0000
  C   C103      1.0  0.95398  0.50499  0.09356  1.0000
  C   C104      1.0  0.04498  0.49336  0.59652  1.0000
  C   C105      1.0  0.08491  0.48368  0.66331  1.0000
  C   C106      1.0  0.10517  0.45219  0.59122  1.0000
  C   C107      1.0  0.14573  0.44954  0.60990  1.0000
  C   C108      1.0  0.16694  0.47798  0.70303  1.0000
  C   C109      1.0  0.14580  0.50674  0.79078  1.0000
  C   C110      1.0  0.10512  0.50909  0.77356  1.0000
  C   C111      1.0  0.78978  0.52331  0.20077  1.0000
  C   C112      1.0  0.20974  0.47771  0.69677  1.0000
  N   N1        1.0  0.53780  0.45569  0.24379  1.0000
  N   N2        1.0  0.46135  0.54547  0.75115  1.0000
  N   N3        1.0  0.45084  0.45679  0.24659  1.0000
  N   N4        1.0  0.54758  0.54340  0.74450  1.0000
  N   N5        1.0  0.51154  0.76894  0.21850  1.0000
  N   N6        1.0  0.48326  0.23069  0.70513  1.0000
  N   N7        1.0  0.22808  0.51899  0.30733  1.0000
  N   N8        1.0  0.77073  0.48114  0.79025  1.0000
  N   N9        1.0  0.45717  0.54261  0.25114  1.0000
  N   N10       1.0  0.54175  0.45699  0.74331  1.0000
  N   N11       1.0  0.54325  0.54111  0.25843  1.0000
  N   N12       1.0  0.45648  0.45892  0.75844  1.0000
  N   N13       1.0  0.49697  0.22889  0.22436  1.0000
  N   N14       1.0  0.51370  0.77203  0.71359  1.0000
  N   N15       1.0  0.76802  0.49613  0.26659  1.0000
  N   N16       1.0  0.23181  0.50159  0.78299  1.0000
  C  Sn1       1.0  0.53354  0.69894  0.59867  1.0000
  C   C113      1.0  0.50960  0.72577  0.68095  1.0000
  C  Sn2       1.0  0.48640  0.71357  0.81363  1.0000
  C  Sn3       1.0  0.48715  0.67373  0.86521  1.0000
  C   C114      1.0  0.51109  0.64692  0.78297  1.0000
  C  Sn4       1.0  0.53430  0.65909  0.65025  1.0000
  O  Te1       1.0  0.55650  0.71178  0.46635  1.0000
  O  Te2       1.0  0.46269  0.74093  0.89393  1.0000
  O  Te3       1.0  0.46417  0.66090  0.99764  1.0000
  O  Te4       1.0  0.55800  0.63176  0.56999  1.0000
  Mg  Mg1       1.0  0.43507  0.70781  0.06765  1.0000
  Mg  Mg2       1.0  0.58400  0.66344  0.39632  1.0000
  C  Sn5       1.0  0.11523  0.54717  0.37021  1.0000
  C   C115      1.0  0.08407  0.52310  0.31530  1.0000
  C  Sn6       1.0  0.09142  0.48865  0.22598  1.0000
  C  Sn7       1.0  0.13073  0.47802  0.19089  1.0000
  C   C116      1.0  0.16186  0.50207  0.24581  1.0000
  C  Sn8       1.0  0.15454  0.53653  0.33512  1.0000
  O  Te5       1.0  0.10720  0.58147  0.45932  1.0000
  O  Te6       1.0  0.05978  0.46508  0.17234  1.0000
  O  Te7       1.0  0.13874  0.44368  0.10170  1.0000
  O  Te8       1.0  0.18615  0.56010  0.38877  1.0000
  Mg  Mg3       1.0  0.08576  0.42121  0.05530  1.0000
  Mg  Mg4       1.0  0.16022  0.60396  0.50589  1.0000
  C  Sn9       1.0  0.68129  0.51710  0.63102  1.0000
  C   C117      1.0  0.65263  0.49239  0.69977  1.0000
  C  Sn10      1.0  0.66269  0.46578  0.82377  1.0000
  C  Sn11      1.0  0.70222  0.46384  0.88033  1.0000
  C   C118      1.0  0.73085  0.48854  0.81162  1.0000
  C  Sn12      1.0  0.72082  0.51516  0.68758  1.0000
  O  Te9       1.0  0.67057  0.54348  0.50719  1.0000
  O  Te10      1.0  0.63353  0.44136  0.89057  1.0000
  O  Te11      1.0  0.71129  0.43601  0.00427  1.0000
  O  Te12      1.0  0.74995  0.53957  0.62082  1.0000
  Mg  Mg5       1.0  0.66104  0.40889  0.05670  1.0000
  Mg  Mg6       1.0  0.72084  0.57065  0.45476  1.0000
  C  Sn13      1.0  0.47149  0.29877  0.10586  1.0000
  C   C119      1.0  0.49805  0.27509  0.19118  1.0000
  C  Sn14      1.0  0.52076  0.29074  0.32106  1.0000
  C  Sn15      1.0  0.51681  0.33089  0.36670  1.0000
  C   C120      1.0  0.49026  0.35455  0.28143  1.0000
  C  Sn16      1.0  0.46754  0.33892  0.15150  1.0000
  O  Te13      1.0  0.45073  0.28392  0.97642  1.0000
  O  Te14      1.0  0.54713  0.26649  0.40448  1.0000
  O  Te15      1.0  0.53924  0.34715  0.49626  1.0000
  O  Te16      1.0  0.44118  0.36315  0.06813  1.0000
  Mg  Mg7       1.0  0.57111  0.30226  0.57237  1.0000
  Mg  Mg8       1.0  0.41882  0.32882  0.90029  1.0000
  C  Sn17      1.0  0.88775  0.55700  0.13122  1.0000
  C   C121      1.0  0.91233  0.52742  0.18991  1.0000
  C  Sn18      1.0  0.89635  0.49231  0.25073  1.0000
  C  Sn19      1.0  0.85493  0.48664  0.25285  1.0000
  C   C122      1.0  0.83038  0.51621  0.19416  1.0000
  C  Sn20      1.0  0.84633  0.55133  0.13334  1.0000
  O  Te17      1.0  0.90437  0.59186  0.07097  1.0000
  O  Te18      1.0  0.92152  0.46317  0.30879  1.0000
  O  Te19      1.0  0.83833  0.45174  0.31317  1.0000
  O  Te20      1.0  0.82119  0.58046  0.07528  1.0000
  Mg  Mg9       1.0  0.88481  0.42078  0.37870  1.0000
  Mg  Mg10      1.0  0.85786  0.62284  0.00527  1.0000
  C  Sn21      1.0  0.85598  0.46916  0.90078  1.0000
  C   C123      1.0  0.83956  0.49312  0.77908  1.0000
  C  Sn22      1.0  0.86372  0.51307  0.66735  1.0000
  C  Sn23      1.0  0.90515  0.50898  0.67740  1.0000
  C   C124      1.0  0.92154  0.48503  0.79902  1.0000
  C  Sn24      1.0  0.89741  0.46507  0.91083  1.0000
  O  Te21      1.0  0.82962  0.44808  0.01117  1.0000
  O  Te22      1.0  0.84663  0.53686  0.54679  1.0000
  O  Te23      1.0  0.92986  0.52868  0.56688  1.0000
  O  Te24      1.0  0.91284  0.43988  0.03131  1.0000
  Mg  Mg11      1.0  0.89263  0.55765  0.42449  1.0000
  Mg  Mg12      1.0  0.86687  0.41906  0.15362  1.0000
  C  Sn25      1.0  0.54384  0.67324  0.20391  1.0000
  C   C125      1.0  0.51527  0.64908  0.27655  1.0000
  C  Sn26      1.0  0.47899  0.66447  0.32250  1.0000
  C  Sn27      1.0  0.47109  0.70485  0.29520  1.0000
  C   C126      1.0  0.49964  0.72898  0.22259  1.0000
  C  Sn28      1.0  0.53594  0.71361  0.17661  1.0000
  O  Te25      1.0  0.57990  0.65722  0.15894  1.0000
  O  Te26      1.0  0.45089  0.63975  0.39497  1.0000
  O  Te27      1.0  0.43499  0.72085  0.34025  1.0000
  O  Te28      1.0  0.56402  0.73831  0.10416  1.0000
  Mg  Mg13      1.0  0.40618  0.67532  0.43481  1.0000
  Mg  Mg14      1.0  0.60873  0.70277  0.06420  1.0000
  C  Sn29      1.0  0.48549  0.89974  0.35124  1.0000
  C   C127      1.0  0.51077  0.91562  0.23262  1.0000
  C  Sn30      1.0  0.52989  0.89102  0.12066  1.0000
  C  Sn31      1.0  0.52359  0.84969  0.12731  1.0000
  C   C128      1.0  0.49833  0.83383  0.24586  1.0000
  C  Sn32      1.0  0.47920  0.85840  0.35790  1.0000
  O  Te29      1.0  0.46668  0.92489  0.46193  1.0000
  O  Te30      1.0  0.55503  0.90759  0.00321  1.0000
  O  Te31      1.0  0.54243  0.82454  0.01649  1.0000
  O  Te32      1.0  0.45406  0.84186  0.47526  1.0000
  Mg  Mg15      1.0  0.57553  0.86255  0.87912  1.0000
  Mg  Mg16      1.0  0.43517  0.88828  0.59936  1.0000
