data_image0
_chemical_formula_structural       H104C208N16C2Sn2C2HTe2HMgC2Sn2C2HTe2HMgC2Sn2C2HTe2HMgC2Sn2C2HTe2HMgC2Sn2C2HTe2HMgC2Sn2C2HTe2HMgC2Sn2C2HTe2HMgC2Sn2C2HTe2HMgC2Sn2C2HTe2HMgC2Sn2C2HTe2HMgC2Sn2C2HTe2HMgC2Sn2C2HTe2HMgC2Sn2C2HTe2HMgC2Sn2C2HTe2HMgC2Sn2C2HTe2HMgC2Sn2C2HTe2HMg
_chemical_formula_sum              "H136 C272 N16 Sn32 Te32 Mg16"
_cell_length_a       53.3663
_cell_length_b       39.6086
_cell_length_c       8.03925
_cell_angle_alpha    90.0134
_cell_angle_beta     115.154
_cell_angle_gamma    89.91

_symmetry_space_group_name_H-M    'P1'
_space_group_IT_number       1

loop_
  _space_group_symop_operation_xyz
  'x, y, z'

loop_
  _atom_site_type_symbol
  _atom_site_label
  _atom_site_symmetry_multiplicity
  _atom_site_fract_x
  _atom_site_fract_y
  _atom_site_fract_z
  _atom_site_occupancy
  H   H1        1.0  0.56126  0.97127  0.20371  1.0000
  H   H2        1.0  0.44050  0.97085  0.29510  1.0000
  H   H3        1.0  0.06147  0.47027  0.21345  1.0000
  H   H4        1.0  0.94112  0.47160  0.31020  1.0000
  H   H5        1.0  0.44099  0.03257  0.30265  1.0000
  H   H6        1.0  0.56146  0.03301  0.20781  1.0000
  H   H7        1.0  0.94121  0.53329  0.30748  1.0000
  H   H8        1.0  0.06138  0.53201  0.20831  1.0000
  H   H9        1.0  0.52522  0.87347  0.07232  1.0000
  H   H10       1.0  0.02456  0.37300  0.08138  1.0000
  H   H11       1.0  0.97549  0.62990  0.43558  1.0000
  H   H12       1.0  0.56541  0.84065  0.08987  1.0000
  H   H13       1.0  0.06416  0.33862  0.10383  1.0000
  H   H14       1.0  0.93431  0.66155  0.41031  1.0000
  H   H15       1.0  0.61971  0.90731  0.50997  1.0000
  H   H16       1.0  0.11916  0.40442  0.52593  1.0000
  H   H17       1.0  0.88233  0.59441  0.98313  1.0000
  H   H18       1.0  0.57900  0.94074  0.49033  1.0000
  H   H19       1.0  0.07892  0.43942  0.50200  1.0000
  H   H20       1.0  0.92399  0.56232  0.00962  1.0000
  H   H21       1.0  0.67400  0.14780  0.43499  1.0000
  H   H22       1.0  0.33186  0.14572  0.14918  1.0000
  H   H23       1.0  0.17127  0.65007  0.38235  1.0000
  H   H24       1.0  0.71794  0.17421  0.45619  1.0000
  H   H25       1.0  0.28949  0.17032  0.16225  1.0000
  H   H26       1.0  0.21337  0.67614  0.37475  1.0000
  H   H27       1.0  0.67065  0.25451  0.09777  1.0000
  H   H28       1.0  0.33292  0.26398  0.36090  1.0000
  H   H29       1.0  0.16512  0.76301  0.09597  1.0000
  H   H30       1.0  0.62716  0.22799  0.07754  1.0000
  H   H31       1.0  0.37488  0.23927  0.34713  1.0000
  H   H32       1.0  0.12346  0.73719  0.10856  1.0000
  H   H33       1.0  0.60312  0.18526  0.14589  1.0000
  H   H34       1.0  0.39883  0.19341  0.28458  1.0000
  H   H35       1.0  0.10127  0.69315  0.19490  1.0000
  H   H36       1.0  0.89748  0.69276  0.27189  1.0000
  H   H37       1.0  0.40030  0.82007  0.37440  1.0000
  H   H38       1.0  0.60121  0.80920  0.21491  1.0000
  H   H39       1.0  0.90257  0.31193  0.34200  1.0000
  H   H40       1.0  0.10022  0.31675  0.12982  1.0000
  H   H41       1.0  0.50086  0.88569  0.24682  1.0000
  H   H42       1.0  0.00080  0.38563  0.26062  1.0000
  H   H43       1.0  0.50068  0.11817  0.25323  1.0000
  H   H44       1.0  0.00080  0.61809  0.24741  1.0000
  H   H45       1.0  0.56034  0.96812  0.70221  1.0000
  H   H46       1.0  0.44017  0.96628  0.80054  1.0000
  H   H47       1.0  0.06015  0.46586  0.71329  1.0000
  H   H48       1.0  0.94011  0.46979  0.81384  1.0000
  H   H49       1.0  0.44014  0.02798  0.80729  1.0000
  H   H50       1.0  0.55984  0.02988  0.70283  1.0000
  H   H51       1.0  0.94064  0.53152  0.80728  1.0000
  H   H52       1.0  0.06092  0.52759  0.71139  1.0000
  H   H53       1.0  0.47620  0.86908  0.92881  1.0000
  H   H54       1.0  0.02167  0.36980  0.56410  1.0000
  H   H55       1.0  0.97414  0.37162  0.94833  1.0000
  H   H56       1.0  0.47386  0.12776  0.92237  1.0000
  H   H57       1.0  0.52260  0.12799  0.58063  1.0000
  H   H58       1.0  0.02528  0.62596  0.57204  1.0000
  H   H59       1.0  0.43605  0.83611  0.90705  1.0000
  H   H60       1.0  0.06064  0.33538  0.57932  1.0000
  H   H61       1.0  0.93346  0.33967  0.92479  1.0000
  H   H62       1.0  0.43267  0.16009  0.89077  1.0000
  H   H63       1.0  0.56191  0.16248  0.60249  1.0000
  H   H64       1.0  0.06546  0.65934  0.59630  1.0000
  H   H65       1.0  0.38202  0.90341  0.48823  1.0000
  H   H66       1.0  0.11672  0.39895  0.00970  1.0000
  H   H67       1.0  0.88079  0.40643  0.49677  1.0000
  H   H68       1.0  0.38059  0.08880  0.49012  1.0000
  H   H69       1.0  0.61774  0.09453  0.00865  1.0000
  H   H70       1.0  0.11937  0.59299  0.02135  1.0000
  H   H71       1.0  0.42288  0.93653  0.50848  1.0000
  H   H72       1.0  0.07692  0.43393  0.99415  1.0000
  H   H73       1.0  0.92217  0.43908  0.52271  1.0000
  H   H74       1.0  0.42226  0.05653  0.51961  1.0000
  H   H75       1.0  0.57765  0.05926  0.98466  1.0000
  H   H76       1.0  0.07866  0.55887  0.99422  1.0000
  H   H77       1.0  0.66839  0.15230  0.92566  1.0000
  H   H78       1.0  0.32860  0.14009  0.62209  1.0000
  H   H79       1.0  0.17050  0.64604  0.89165  1.0000
  H   H80       1.0  0.82653  0.35443  0.60579  1.0000
  H   H81       1.0  0.71174  0.17981  0.94331  1.0000
  H   H82       1.0  0.28595  0.16297  0.63854  1.0000
  H   H83       1.0  0.21303  0.67117  0.88419  1.0000
  H   H84       1.0  0.78344  0.32923  0.60411  1.0000
  H   H85       1.0  0.66264  0.25695  0.56781  1.0000
  H   H86       1.0  0.32793  0.25714  0.84506  1.0000
  H   H87       1.0  0.16604  0.75918  0.61117  1.0000
  H   H88       1.0  0.83069  0.24385  0.91129  1.0000
  H   H89       1.0  0.61970  0.22942  0.55266  1.0000
  H   H90       1.0  0.37004  0.23432  0.82537  1.0000
  H   H91       1.0  0.12398  0.73416  0.62217  1.0000
  H   H92       1.0  0.87329  0.26898  0.90978  1.0000
  H   H93       1.0  0.59689  0.18463  0.62627  1.0000
  H   H94       1.0  0.39494  0.18960  0.76405  1.0000
  H   H95       1.0  0.10116  0.68995  0.70357  1.0000
  H   H96       1.0  0.89904  0.69241  0.77339  1.0000
  H   H97       1.0  0.39994  0.81392  0.87106  1.0000
  H   H98       1.0  0.60219  0.80841  0.70049  1.0000
  H   H99       1.0  0.89689  0.31211  0.83762  1.0000
  H   H100      1.0  0.09610  0.31155  0.61091  1.0000
  H   H101      1.0  0.50085  0.88181  0.74764  1.0000
  H   H102      1.0  0.99821  0.38229  0.75663  1.0000
  H   H103      1.0  0.49927  0.11429  0.75616  1.0000
  H   H104      1.0  0.00125  0.61484  0.74815  1.0000
  C   C1        1.0  0.52460  0.92996  0.25808  1.0000
  C   C2        1.0  0.47733  0.92999  0.23898  1.0000
  C   C3        1.0  0.02457  0.42958  0.26893  1.0000
  C   C4        1.0  0.97765  0.43010  0.25514  1.0000
  C   C5        1.0  0.47748  0.07377  0.24771  1.0000
  C   C6        1.0  0.52429  0.07391  0.25978  1.0000
  C   C7        1.0  0.97755  0.57392  0.24560  1.0000
  C   C8        1.0  0.02442  0.57371  0.25748  1.0000
  C   C9        1.0  0.52411  0.96584  0.24806  1.0000
  C   C10       1.0  0.47781  0.96580  0.25152  1.0000
  C   C11       1.0  0.02429  0.46546  0.25827  1.0000
  C   C12       1.0  0.97823  0.46596  0.26503  1.0000
  C   C13       1.0  0.47798  0.03790  0.25652  1.0000
  C   C14       1.0  0.52401  0.03806  0.24963  1.0000
  C   C15       1.0  0.97818  0.53811  0.25999  1.0000
  C   C16       1.0  0.02412  0.53778  0.25146  1.0000
  C   C17       1.0  0.54530  0.98481  0.22657  1.0000
  C   C18       1.0  0.45662  0.98452  0.27488  1.0000
  C   C19       1.0  0.04545  0.48409  0.23449  1.0000
  C   C20       1.0  0.95714  0.48502  0.28743  1.0000
  C   C21       1.0  0.45681  0.01900  0.27835  1.0000
  C   C22       1.0  0.54532  0.01932  0.22780  1.0000
  C   C23       1.0  0.95718  0.51951  0.28569  1.0000
  C   C24       1.0  0.04536  0.51862  0.23123  1.0000
  C   C25       1.0  0.54898  0.91001  0.27640  1.0000
  C   C26       1.0  0.04873  0.40923  0.28632  1.0000
  C   C27       1.0  0.95290  0.59353  0.22608  1.0000
  C   C28       1.0  0.54583  0.88057  0.17161  1.0000
  C   C29       1.0  0.04528  0.37970  0.18123  1.0000
  C   C30       1.0  0.95519  0.62256  0.33227  1.0000
  C   C31       1.0  0.56853  0.86182  0.18275  1.0000
  C   C32       1.0  0.06774  0.36025  0.19437  1.0000
  C   C33       1.0  0.93192  0.64064  0.31697  1.0000
  C   C34       1.0  0.59564  0.87166  0.30287  1.0000
  C   C35       1.0  0.09493  0.36945  0.31648  1.0000
  C   C36       1.0  0.90520  0.63038  0.19202  1.0000
  C   C37       1.0  0.59886  0.90042  0.41307  1.0000
  C   C38       1.0  0.09828  0.39807  0.42774  1.0000
  C   C39       1.0  0.90288  0.60184  0.08213  1.0000
  C   C40       1.0  0.57603  0.91907  0.40077  1.0000
  C   C41       1.0  0.07577  0.41765  0.41282  1.0000
  C   C42       1.0  0.92621  0.58396  0.09805  1.0000
  C   C43       1.0  0.67368  0.17106  0.36214  1.0000
  C   C44       1.0  0.33168  0.17149  0.19529  1.0000
  C   C45       1.0  0.17032  0.67479  0.32090  1.0000
  C   C46       1.0  0.69793  0.18569  0.37388  1.0000
  C   C47       1.0  0.30830  0.18514  0.20244  1.0000
  C   C48       1.0  0.19360  0.68928  0.31631  1.0000
  C   C49       1.0  0.69718  0.21606  0.27840  1.0000
  C   C50       1.0  0.30835  0.21881  0.26265  1.0000
  C   C51       1.0  0.19214  0.72144  0.23492  1.0000
  C   C52       1.0  0.67129  0.23137  0.17228  1.0000
  C   C53       1.0  0.33280  0.23815  0.31489  1.0000
  C   C54       1.0  0.16639  0.73850  0.15987  1.0000
  C   C55       1.0  0.64712  0.21641  0.16097  1.0000
  C   C56       1.0  0.35617  0.22418  0.30713  1.0000
  C   C57       1.0  0.14320  0.72386  0.16670  1.0000
  C   C58       1.0  0.64782  0.18617  0.25469  1.0000
  C   C59       1.0  0.35605  0.19075  0.24715  1.0000
  C   C60       1.0  0.14466  0.69186  0.24675  1.0000
  C   C61       1.0  0.72166  0.23010  0.28332  1.0000
  C   C62       1.0  0.28440  0.23239  0.26883  1.0000
  C   C63       1.0  0.21585  0.73586  0.22923  1.0000
  C   C64       1.0  0.78176  0.73067  0.24008  1.0000
  C   C65       1.0  0.28127  0.77321  0.22441  1.0000
  C   C66       1.0  0.71453  0.76580  0.22781  1.0000
  C   C67       1.0  0.78719  0.26674  0.27760  1.0000
  C   C68       1.0  0.21833  0.26753  0.27426  1.0000
  C   C69       1.0  0.74288  0.24211  0.28263  1.0000
  C   C70       1.0  0.26303  0.24371  0.27082  1.0000
  C   C71       1.0  0.23688  0.74806  0.22628  1.0000
  C   C72       1.0  0.75994  0.74167  0.23651  1.0000
  C   C73       1.0  0.26002  0.76127  0.22511  1.0000
  C   C74       1.0  0.73621  0.75418  0.23203  1.0000
  C   C75       1.0  0.76605  0.25505  0.28095  1.0000
  C   C76       1.0  0.23971  0.25616  0.27260  1.0000
  C   C77       1.0  0.62188  0.17170  0.23887  1.0000
  C   C78       1.0  0.38083  0.17648  0.24177  1.0000
  C   C79       1.0  0.11990  0.67711  0.25015  1.0000
  C   C80       1.0  0.87960  0.67561  0.22958  1.0000
  C   C81       1.0  0.38127  0.83149  0.27095  1.0000
  C   C82       1.0  0.61950  0.82564  0.25539  1.0000
  C   C83       1.0  0.88332  0.32631  0.26870  1.0000
  C   C84       1.0  0.11928  0.32801  0.23373  1.0000
  C   C85       1.0  0.50098  0.98380  0.25068  1.0000
  C   C86       1.0  0.00127  0.48373  0.26052  1.0000
  C   C87       1.0  0.50098  0.01996  0.25201  1.0000
  C   C88       1.0  0.00122  0.51993  0.25764  1.0000
  C   C89       1.0  0.50094  0.91317  0.24795  1.0000
  C   C90       1.0  0.00100  0.41308  0.26155  1.0000
  C   C91       1.0  0.50081  0.09070  0.25326  1.0000
  C   C92       1.0  0.00088  0.59062  0.24957  1.0000
  C   C93       1.0  0.52404  0.92646  0.75696  1.0000
  C   C94       1.0  0.47705  0.92580  0.74291  1.0000
  C   C95       1.0  0.02251  0.42579  0.76333  1.0000
  C   C96       1.0  0.97595  0.42729  0.75654  1.0000
  C   C97       1.0  0.47604  0.06982  0.74786  1.0000
  C   C98       1.0  0.52300  0.07032  0.76109  1.0000
  C   C99       1.0  0.97735  0.57124  0.74520  1.0000
  C   C100      1.0  0.02445  0.56996  0.76124  1.0000
  C   C101      1.0  0.52338  0.96233  0.74842  1.0000
  C   C102      1.0  0.47733  0.96165  0.75517  1.0000
  C   C103      1.0  0.02284  0.46172  0.75674  1.0000
  C   C104      1.0  0.97697  0.46316  0.76660  1.0000
  C   C105      1.0  0.47688  0.03392  0.75851  1.0000
  C   C106      1.0  0.52282  0.03448  0.74978  1.0000
  C   C107      1.0  0.97765  0.53541  0.76043  1.0000
  C   C108      1.0  0.02377  0.53405  0.75476  1.0000
  C   C109      1.0  0.54432  0.98150  0.72525  1.0000
  C   C110      1.0  0.45612  0.98017  0.77941  1.0000
  C   C111      1.0  0.04432  0.47998  0.73487  1.0000
  C   C112      1.0  0.95615  0.48277  0.78944  1.0000
  C   C113      1.0  0.45601  0.01467  0.78219  1.0000
  C   C114      1.0  0.54404  0.01600  0.72568  1.0000
  C   C115      1.0  0.95645  0.51727  0.78601  1.0000
  C   C116      1.0  0.04477  0.51449  0.73403  1.0000
  C   C117      1.0  0.45267  0.90586  0.72458  1.0000
  C   C118      1.0  0.95131  0.40805  0.73966  1.0000
  C   C119      1.0  0.04624  0.40509  0.77440  1.0000
  C   C120      1.0  0.54707  0.09055  0.77695  1.0000
  C   C121      1.0  0.45128  0.08940  0.72592  1.0000
  C   C122      1.0  0.04888  0.58962  0.77872  1.0000
  C   C123      1.0  0.45559  0.87645  0.82974  1.0000
  C   C124      1.0  0.04244  0.37617  0.66413  1.0000
  C   C125      1.0  0.95374  0.37898  0.84620  1.0000
  C   C126      1.0  0.45350  0.11963  0.82331  1.0000
  C   C127      1.0  0.54341  0.12066  0.67601  1.0000
  C   C128      1.0  0.04583  0.61907  0.67381  1.0000
  C   C129      1.0  0.43281  0.85782  0.81734  1.0000
  C   C130      1.0  0.06461  0.35661  0.67285  1.0000
  C   C131      1.0  0.93065  0.36075  0.83179  1.0000
  C   C132      1.0  0.43021  0.13802  0.80466  1.0000
  C   C133      1.0  0.56570  0.14020  0.68887  1.0000
  C   C134      1.0  0.06853  0.63809  0.68865  1.0000
  C   C135      1.0  0.40575  0.86799  0.69705  1.0000
  C   C136      1.0  0.09196  0.36509  0.79539  1.0000
  C   C137      1.0  0.90380  0.37082  0.70693  1.0000
  C   C138      1.0  0.40343  0.12685  0.68564  1.0000
  C   C139      1.0  0.59299  0.13046  0.80634  1.0000
  C   C140      1.0  0.09555  0.62859  0.81281  1.0000
  C   C141      1.0  0.40284  0.89644  0.58536  1.0000
  C   C142      1.0  0.09574  0.39317  0.91097  1.0000
  C   C143      1.0  0.90142  0.39927  0.59607  1.0000
  C   C144      1.0  0.40118  0.09713  0.58408  1.0000
  C   C145      1.0  0.59672  0.10113  0.91317  1.0000
  C   C146      1.0  0.09861  0.59973  0.92216  1.0000
  C   C147      1.0  0.42572  0.91495  0.59837  1.0000
  C   C148      1.0  0.07347  0.41274  0.90087  1.0000
  C   C149      1.0  0.92458  0.41748  0.61183  1.0000
  C   C150      1.0  0.42453  0.07903  0.60241  1.0000
  C   C151      1.0  0.57428  0.08148  0.89819  1.0000
  C   C152      1.0  0.07582  0.58068  0.90573  1.0000
  C   C153      1.0  0.66765  0.17522  0.84921  1.0000
  C   C154      1.0  0.32804  0.16559  0.67063  1.0000
  C   C155      1.0  0.16999  0.67077  0.83148  1.0000
  C   C156      1.0  0.82704  0.33026  0.67137  1.0000
  C   C157      1.0  0.69150  0.19046  0.85885  1.0000
  C   C158      1.0  0.30449  0.17831  0.67969  1.0000
  C   C159      1.0  0.19345  0.68474  0.82728  1.0000
  C   C160      1.0  0.80322  0.31625  0.67040  1.0000
  C   C161      1.0  0.69004  0.22039  0.75850  1.0000
  C   C162      1.0  0.30409  0.21161  0.74361  1.0000
  C   C163      1.0  0.19241  0.71703  0.74854  1.0000
  C   C164      1.0  0.80418  0.28481  0.75742  1.0000
  C   C165      1.0  0.66378  0.23441  0.64787  1.0000
  C   C166      1.0  0.32818  0.23162  0.79603  1.0000
  C   C167      1.0  0.16691  0.73462  0.67372  1.0000
  C   C168      1.0  0.82984  0.26782  0.84324  1.0000
  C   C169      1.0  0.63995  0.21884  0.63893  1.0000
  C   C170      1.0  0.35165  0.21865  0.78552  1.0000
  C   C171      1.0  0.14353  0.72043  0.67953  1.0000
  C   C172      1.0  0.85355  0.28208  0.84279  1.0000
  C   C173      1.0  0.64147  0.18914  0.73872  1.0000
  C   C174      1.0  0.35214  0.18547  0.72403  1.0000
  C   C175      1.0  0.14460  0.68841  0.75833  1.0000
  C   C176      1.0  0.85271  0.31344  0.75827  1.0000
  C   C177      1.0  0.71438  0.23506  0.76507  1.0000
  C   C178      1.0  0.28013  0.22443  0.75295  1.0000
  C   C179      1.0  0.21628  0.73110  0.74418  1.0000
  C   C180      1.0  0.78500  0.73385  0.75122  1.0000
  C   C181      1.0  0.28161  0.76837  0.73873  1.0000
  C   C182      1.0  0.71805  0.77003  0.73720  1.0000
  C   C183      1.0  0.78020  0.27123  0.76235  1.0000
  C   C184      1.0  0.21385  0.25977  0.75422  1.0000
  C   C185      1.0  0.73591  0.24685  0.76843  1.0000
  C   C186      1.0  0.25884  0.23550  0.75709  1.0000
  C   C187      1.0  0.23731  0.74311  0.74067  1.0000
  C   C188      1.0  0.76332  0.74563  0.74582  1.0000
  C   C189      1.0  0.26038  0.75636  0.73914  1.0000
  C   C190      1.0  0.73970  0.75849  0.74092  1.0000
  C   C191      1.0  0.75913  0.25968  0.76733  1.0000
  C   C192      1.0  0.23544  0.24803  0.75774  1.0000
  C   C193      1.0  0.61627  0.17310  0.72511  1.0000
  C   C194      1.0  0.37733  0.17202  0.72078  1.0000
  C   C195      1.0  0.11976  0.67388  0.76067  1.0000
  C   C196      1.0  0.88101  0.67550  0.73137  1.0000
  C   C197      1.0  0.38095  0.82687  0.77663  1.0000
  C   C198      1.0  0.62036  0.82515  0.74713  1.0000
  C   C199      1.0  0.87826  0.32762  0.76476  1.0000
  C   C200      1.0  0.11549  0.32283  0.71106  1.0000
  C   C201      1.0  0.50025  0.98000  0.75270  1.0000
  C   C202      1.0  0.00018  0.48047  0.76165  1.0000
  C   C203      1.0  0.50001  0.01619  0.75416  1.0000
  C   C204      1.0  0.00056  0.51669  0.75936  1.0000
  C   C205      1.0  0.50066  0.90929  0.74926  1.0000
  C   C206      1.0  0.99888  0.40975  0.75891  1.0000
  C   C207      1.0  0.49944  0.08683  0.75527  1.0000
  C   C208      1.0  0.00099  0.58737  0.75098  1.0000
  N   N1        1.0  0.62118  0.14502  0.32965  1.0000
  N   N2        1.0  0.38144  0.14572  0.18978  1.0000
  N   N3        1.0  0.11988  0.64710  0.31353  1.0000
  N   N4        1.0  0.88055  0.64478  0.17943  1.0000
  N   N5        1.0  0.38130  0.85673  0.16856  1.0000
  N   N6        1.0  0.61969  0.85644  0.30961  1.0000
  N   N7        1.0  0.88268  0.35523  0.19195  1.0000
  N   N8        1.0  0.11940  0.35356  0.33469  1.0000
  N   N9        1.0  0.61712  0.14686  0.82356  1.0000
  N   N10       1.0  0.37869  0.14121  0.67161  1.0000
  N   N11       1.0  0.11984  0.64397  0.82565  1.0000
  N   N12       1.0  0.88146  0.64472  0.67892  1.0000
  N   N13       1.0  0.38104  0.85316  0.68119  1.0000
  N   N14       1.0  0.61995  0.85564  0.80361  1.0000
  N   N15       1.0  0.87889  0.35636  0.69012  1.0000
  N   N16       1.0  0.11616  0.34876  0.81110  1.0000
  C   C209      1.0  0.44071  0.86229  0.32482  1.0000
  C   C210      1.0  0.41256  0.86886  0.22152  1.0000
  C  Sn1       1.0  0.40413  0.89648  0.10213  1.0000
  C  Sn2       1.0  0.42430  0.91786  0.08611  1.0000
  C   C211      1.0  0.45241  0.91104  0.18996  1.0000
  C   C212      1.0  0.46062  0.88335  0.30905  1.0000
  H   H105      1.0  0.44707  0.84085  0.41690  1.0000
  O  Te1       1.0  0.43994  0.90261  0.99999  1.0000
  O  Te2       1.0  0.48047  0.94553  0.96778  1.0000
  H   H106      1.0  0.48242  0.87825  0.38893  1.0000
  Mg  Mg1       1.0  0.43953  0.94356  0.85750  1.0000
  C   C213      1.0  0.56096  0.86112  0.65204  1.0000
  C   C214      1.0  0.58904  0.86787  0.75635  1.0000
  C  Sn3       1.0  0.59718  0.89413  0.88442  1.0000
  C  Sn4       1.0  0.57678  0.91396  0.90824  1.0000
  C   C215      1.0  0.54874  0.90699  0.80331  1.0000
  C   C216      1.0  0.54083  0.88065  0.67550  1.0000
  H   H107      1.0  0.55484  0.84073  0.55321  1.0000
  O  Te3       1.0  0.62532  0.90054  0.98745  1.0000
  O  Te4       1.0  0.52030  0.94045  0.03533  1.0000
  H   H108      1.0  0.51909  0.87542  0.59484  1.0000
  Mg  Mg2       1.0  0.56126  0.93936  0.14331  1.0000
  C   C217      1.0  0.66207  0.76267  0.67408  1.0000
  C   C218      1.0  0.68728  0.77856  0.71213  1.0000
  C  Sn5       1.0  0.69173  0.81182  0.77585  1.0000
  C  Sn6       1.0  0.67050  0.82944  0.80188  1.0000
  C   C219      1.0  0.64535  0.81331  0.76355  1.0000
  C   C220      1.0  0.64112  0.78002  0.69979  1.0000
  H   H109      1.0  0.65880  0.73691  0.62485  1.0000
  O  Te5       1.0  0.71704  0.82732  0.81313  1.0000
  O  Te6       1.0  0.67440  0.86270  0.86549  1.0000
  H   H110      1.0  0.62161  0.76772  0.67045  1.0000
  Mg  Mg3       1.0  0.71246  0.87297  0.89711  1.0000
  C   C221      1.0  0.54916  0.12937  0.15212  1.0000
  C   C222      1.0  0.54777  0.10035  0.24666  1.0000
  C  Sn7       1.0  0.57174  0.08708  0.38649  1.0000
  C  Sn8       1.0  0.59755  0.10322  0.43225  1.0000
  C   C223      1.0  0.59872  0.13225  0.33694  1.0000
  C   C224      1.0  0.57461  0.14531  0.19721  1.0000
  H   H111      1.0  0.53051  0.13949  0.04408  1.0000
  O  Te7       1.0  0.56998  0.05806  0.47951  1.0000
  O  Te8       1.0  0.62182  0.09050  0.57146  1.0000
  H   H112      1.0  0.57569  0.16779  0.12412  1.0000
  Mg  Mg4       1.0  0.60881  0.05034  0.65862  1.0000
  C   C225      1.0  0.35267  0.78028  0.36979  1.0000
  C   C226      1.0  0.35637  0.80803  0.27533  1.0000
  C  Sn9       1.0  0.33358  0.82694  0.15806  1.0000
  C  Sn10      1.0  0.30660  0.81784  0.13527  1.0000
  C   C227      1.0  0.30312  0.79005  0.23049  1.0000
  C   C228      1.0  0.32607  0.77129  0.34745  1.0000
  H   H113      1.0  0.37043  0.76578  0.46036  1.0000
  O  Te9       1.0  0.33765  0.85459  0.06468  1.0000
  O  Te10      1.0  0.28346  0.83631  0.01898  1.0000
  H   H114      1.0  0.32320  0.74982  0.42066  1.0000
  Mg  Mg5       1.0  0.36365  0.87180  0.92156  1.0000
  C   C229      1.0  0.16011  0.26707  0.14211  1.0000
  C   C230      1.0  0.18746  0.27798  0.23614  1.0000
  C  Sn11      1.0  0.19358  0.30645  0.34911  1.0000
  C  Sn12      1.0  0.17186  0.32428  0.36806  1.0000
  C   C231      1.0  0.14456  0.31316  0.27351  1.0000
  C   C232      1.0  0.13867  0.28464  0.16078  1.0000
  H   H115      1.0  0.15555  0.24500  0.05496  1.0000
  O  Te11      1.0  0.22102  0.31701  0.44202  1.0000
  O  Te12      1.0  0.17738  0.35281  0.48013  1.0000
  H   H116      1.0  0.11749  0.27619  0.08809  1.0000
  Mg  Mg6       1.0  0.21811  0.35733  0.57857  1.0000
  C   C233      1.0  0.40615  0.09606  0.06851  1.0000
  C   C234      1.0  0.40449  0.12248  0.17865  1.0000
  C  Sn13      1.0  0.42856  0.13592  0.31637  1.0000
  C  Sn14      1.0  0.45474  0.12262  0.34397  1.0000
  C   C235      1.0  0.45618  0.09620  0.23297  1.0000
  C   C236      1.0  0.43196  0.08293  0.09560  1.0000
  H   H117      1.0  0.45144  0.08571  0.96215  1.0000
  O  Te13      1.0  0.42653  0.16231  0.42521  1.0000
  O  Te14      1.0  0.47912  0.13559  0.48058  1.0000
  H   H118      1.0  0.43325  0.06249  0.01027  1.0000
  Mg  Mg7       1.0  0.46564  0.17152  0.59368  1.0000
  C   C237      1.0  0.85738  0.27328  0.37542  1.0000
  C   C238      1.0  0.85939  0.30192  0.28039  1.0000
  C  Sn15      1.0  0.83598  0.32158  0.18166  1.0000
  C  Sn16      1.0  0.81009  0.31233  0.17831  1.0000
  C   C239      1.0  0.80830  0.28364  0.27394  1.0000
  C   C240      1.0  0.83186  0.26415  0.37224  1.0000
  H   H119      1.0  0.87561  0.25820  0.45157  1.0000
  O  Te15      1.0  0.83835  0.35011  0.08742  1.0000
  O  Te16      1.0  0.78636  0.33153  0.08078  1.0000
  H   H120      1.0  0.83029  0.24198  0.44590  1.0000
  Mg  Mg8       1.0  0.86414  0.36810  0.97411  1.0000
  C   C241      1.0  0.94038  0.63828  0.83763  1.0000
  C   C242      1.0  0.91263  0.63437  0.71419  1.0000
  C  Sn17      1.0  0.90458  0.60740  0.59051  1.0000
  C  Sn18      1.0  0.92472  0.58395  0.59077  1.0000
  C   C243      1.0  0.95242  0.58808  0.71490  1.0000
  C   C244      1.0  0.96026  0.61516  0.83804  1.0000
  H   H121      1.0  0.94644  0.65923  0.93298  1.0000
  O  Te17      1.0  0.87677  0.60387  0.46806  1.0000
  O  Te18      1.0  0.91724  0.55676  0.46869  1.0000
  H   H122      1.0  0.98174  0.61817  0.93368  1.0000
  Mg  Mg9       1.0  0.87677  0.56271  0.32811  1.0000
  C   C245      1.0  0.33971  0.76689  0.86825  1.0000
  C   C246      1.0  0.31256  0.77889  0.77999  1.0000
  C  Sn19      1.0  0.30675  0.80813  0.67276  1.0000
  C  Sn20      1.0  0.32858  0.82561  0.65376  1.0000
  C   C247      1.0  0.35567  0.81338  0.74251  1.0000
  C   C248      1.0  0.36124  0.78411  0.84953  1.0000
  H   H123      1.0  0.34402  0.74423  0.95097  1.0000
  O  Te19      1.0  0.27951  0.81978  0.58558  1.0000
  O  Te20      1.0  0.32336  0.85488  0.54737  1.0000
  H   H124      1.0  0.38227  0.77481  0.91775  1.0000
  Mg  Mg10      1.0  0.28282  0.86080  0.45551  1.0000
  C   C249      1.0  0.64538  0.77029  0.16247  1.0000
  C   C250      1.0  0.64310  0.80141  0.23681  1.0000
  C  Sn21      1.0  0.66547  0.82372  0.30237  1.0000
  C  Sn22      1.0  0.69057  0.81463  0.29309  1.0000
  C   C251      1.0  0.69265  0.78344  0.21834  1.0000
  C   C252      1.0  0.67013  0.76131  0.15320  1.0000
  H   H125      1.0  0.62796  0.75318  0.11196  1.0000
  O  Te21      1.0  0.66284  0.85470  0.37629  1.0000
  O  Te22      1.0  0.71325  0.83644  0.35755  1.0000
  H   H126      1.0  0.67190  0.73723  0.09553  1.0000
  Mg  Mg11      1.0  0.69954  0.87585  0.44632  1.0000
  C   C253      1.0  0.84141  0.73874  0.81786  1.0000
  C   C254      1.0  0.81474  0.72543  0.75726  1.0000
  C  Sn23      1.0  0.80931  0.69234  0.69155  1.0000
  C  Sn24      1.0  0.83103  0.67225  0.68663  1.0000
  C   C255      1.0  0.85764  0.68579  0.74769  1.0000
  C   C256      1.0  0.86284  0.71894  0.81312  1.0000
  H   H127      1.0  0.84544  0.76438  0.86858  1.0000
  O  Te23      1.0  0.78255  0.67945  0.63147  1.0000
  O  Te24      1.0  0.82618  0.63910  0.62169  1.0000
  H   H128      1.0  0.88349  0.72923  0.86015  1.0000
  Mg  Mg12      1.0  0.78624  0.63287  0.55485  1.0000
  C   C257      1.0  0.85050  0.73069  0.29668  1.0000
  C   C258      1.0  0.85558  0.69771  0.25719  1.0000
  C  Sn25      1.0  0.83440  0.67374  0.19929  1.0000
  C  Sn26      1.0  0.80764  0.68305  0.18065  1.0000
  C   C259      1.0  0.80276  0.71611  0.22036  1.0000
  C   C260      1.0  0.82412  0.73989  0.27826  1.0000
  H   H129      1.0  0.86702  0.74909  0.34138  1.0000
  O  Te25      1.0  0.83983  0.64089  0.16047  1.0000
  O  Te26      1.0  0.78609  0.65960  0.12296  1.0000
  H   H130      1.0  0.82017  0.76543  0.30871  1.0000
  Mg  Mg13      1.0  0.80372  0.61797  0.08643  1.0000
  C   C261      1.0  0.18765  0.31235  0.85683  1.0000
  C   C262      1.0  0.19062  0.28162  0.78155  1.0000
  C  Sn27      1.0  0.16727  0.26331  0.66737  1.0000
  C  Sn28      1.0  0.14047  0.27606  0.62804  1.0000
  C   C263      1.0  0.13772  0.30683  0.70393  1.0000
  C   C264      1.0  0.16123  0.32495  0.81806  1.0000
  H   H131      1.0  0.20584  0.32637  0.94505  1.0000
  O  Te27      1.0  0.17061  0.23265  0.59335  1.0000
  O  Te28      1.0  0.11678  0.25828  0.51431  1.0000
  H   H132      1.0  0.15893  0.34875  0.87623  1.0000
  Mg  Mg14      1.0  0.13202  0.21768  0.44621  1.0000
  C   C265      1.0  0.04841  0.63009  0.14927  1.0000
  C   C266      1.0  0.04758  0.60058  0.24205  1.0000
  C  Sn29      1.0  0.07190  0.58720  0.37799  1.0000
  C  Sn30      1.0  0.09749  0.60373  0.42160  1.0000
  C   C267      1.0  0.09810  0.63325  0.32808  1.0000
  C   C268      1.0  0.07365  0.64641  0.19224  1.0000
  H   H133      1.0  0.02948  0.64028  0.04423  1.0000
  O  Te29      1.0  0.07070  0.55769  0.46930  1.0000
  O  Te30      1.0  0.12211  0.59092  0.55692  1.0000
  H   H134      1.0  0.07429  0.66927  0.12051  1.0000
  Mg  Mg15      1.0  0.10983  0.55003  0.64304  1.0000
  C   C269      1.0  0.90630  0.40833  0.08959  1.0000
  C   C270      1.0  0.90583  0.37752  0.17289  1.0000
  C  Sn31      1.0  0.93043  0.36316  0.30047  1.0000
  C  Sn32      1.0  0.95593  0.38001  0.34525  1.0000
  C   C271      1.0  0.95617  0.41084  0.26125  1.0000
  C   C272      1.0  0.93144  0.42498  0.13373  1.0000
  H   H135      1.0  0.95119  0.41920  0.99099  1.0000
  O  Te31      1.0  0.92959  0.33235  0.38236  1.0000
  O  Te32      1.0  0.98081  0.36622  0.47235  1.0000
  H   H136      1.0  0.93180  0.44885  0.06934  1.0000
  Mg  Mg16      1.0  0.96900  0.32371  0.54716  1.0000
