data_image0
_chemical_formula_structural       H72C132N12SnCSn2CSnTe4Mg2SnCSn2CSnTe4Mg2SnCSn2CSnTe4Mg2SnCSn2CSnTe4Mg2SnCSn2CSnTe4Mg2SnCSn2CSnTe4Mg2SnCSn2CSnTe4Mg2SnCSn2CSnTe4Mg2SnCSn2CSnTe4Mg2SnCSn2CSnTe4Mg2SnCSn2CSnTe4Mg2SnCSn2CSnTe4Mg2
_chemical_formula_sum              "H72 C156 N12 Sn48 Te48 Mg24"
_cell_length_a       53.3831
_cell_length_b       53.6499
_cell_length_c       8.03839
_cell_angle_alpha    98.5788
_cell_angle_beta     101.134
_cell_angle_gamma    119.79

_symmetry_space_group_name_H-M    'P1'
_space_group_IT_number       1

loop_
  _space_group_symop_operation_xyz
  'x, y, z'

loop_
  _atom_site_type_symbol
  _atom_site_label
  _atom_site_symmetry_multiplicity
  _atom_site_fract_x
  _atom_site_fract_y
  _atom_site_fract_z
  _atom_site_occupancy
  H   H1        1.0  0.38396  0.82040  0.07701  1.0000
  H   H2        1.0  0.16640  0.55086  0.16501  1.0000
  H   H3        1.0  0.44325  0.61534  0.12888  1.0000
  H   H4        1.0  0.60313  0.16365  0.13228  1.0000
  H   H5        1.0  0.82365  0.43723  0.15842  1.0000
  H   H6        1.0  0.55319  0.38328  0.14881  1.0000
  H   H7        1.0  0.69324  0.30548  0.28971  1.0000
  H   H8        1.0  0.69492  0.38648  0.29455  1.0000
  H   H9        1.0  0.61338  0.30733  0.28251  1.0000
  H   H10       1.0  0.30729  0.69429  0.27069  1.0000
  H   H11       1.0  0.30758  0.61429  0.26026  1.0000
  H   H12       1.0  0.38856  0.69577  0.27969  1.0000
  H   H13       1.0  0.60155  0.27290  0.39743  1.0000
  H   H14       1.0  0.67413  0.40327  0.50688  1.0000
  H   H15       1.0  0.27864  0.67469  0.45372  1.0000
  H   H16       1.0  0.33659  0.60095  0.35816  1.0000
  H   H17       1.0  0.57362  0.21956  0.39415  1.0000
  H   H18       1.0  0.64912  0.43213  0.50809  1.0000
  H   H19       1.0  0.22468  0.64901  0.44949  1.0000
  H   H20       1.0  0.36357  0.57477  0.34233  1.0000
  H   H21       1.0  0.63860  0.20846  0.20729  1.0000
  H   H22       1.0  0.57295  0.36068  0.07319  1.0000
  H   H23       1.0  0.20406  0.57024  0.07409  1.0000
  H   H24       1.0  0.42979  0.64482  0.17720  1.0000
  H   H25       1.0  0.66503  0.26036  0.19754  1.0000
  H   H26       1.0  0.59729  0.33200  0.07427  1.0000
  H   H27       1.0  0.25733  0.59554  0.07831  1.0000
  H   H28       1.0  0.40232  0.66973  0.18089  1.0000
  H   H29       1.0  0.59887  0.46511  0.41439  1.0000
  H   H30       1.0  0.57780  0.49765  0.41382  1.0000
  H   H31       1.0  0.49275  0.42317  0.04580  1.0000
  H   H32       1.0  0.51398  0.39115  0.04646  1.0000
  H   H33       1.0  0.38527  0.82265  0.58699  1.0000
  H   H34       1.0  0.16295  0.55231  0.61692  1.0000
  H   H35       1.0  0.43330  0.60590  0.60754  1.0000
  H   H36       1.0  0.61414  0.16696  0.66985  1.0000
  H   H37       1.0  0.82258  0.44078  0.64488  1.0000
  H   H38       1.0  0.54666  0.37639  0.64799  1.0000
  H   H39       1.0  0.69461  0.30847  0.78198  1.0000
  H   H40       1.0  0.69273  0.38782  0.78827  1.0000
  H   H41       1.0  0.61291  0.30658  0.77279  1.0000
  H   H42       1.0  0.30797  0.69633  0.77443  1.0000
  H   H43       1.0  0.30626  0.61552  0.76743  1.0000
  H   H44       1.0  0.38818  0.69565  0.78298  1.0000
  H   H45       1.0  0.60495  0.27374  0.90858  1.0000
  H   H46       1.0  0.74072  0.33776  0.89760  1.0000
  H   H47       1.0  0.40792  0.74352  0.97177  1.0000
  H   H48       1.0  0.27723  0.67644  0.94795  1.0000
  H   H49       1.0  0.57904  0.22053  0.90866  1.0000
  H   H50       1.0  0.79398  0.36481  0.89431  1.0000
  H   H51       1.0  0.43544  0.79719  0.97439  1.0000
  H   H52       1.0  0.22325  0.64950  0.94557  1.0000
  H   H53       1.0  0.64073  0.21050  0.67529  1.0000
  H   H54       1.0  0.77983  0.42592  0.66384  1.0000
  H   H55       1.0  0.35567  0.78009  0.59667  1.0000
  H   H56       1.0  0.20527  0.57004  0.59070  1.0000
  H   H57       1.0  0.66566  0.26250  0.66998  1.0000
  H   H58       1.0  0.72699  0.39871  0.66137  1.0000
  H   H59       1.0  0.32870  0.72717  0.59245  1.0000
  H   H60       1.0  0.25824  0.59668  0.59095  1.0000
  H   H61       1.0  0.46503  0.87458  0.90151  1.0000
  H   H62       1.0  0.54397  0.13497  0.81522  1.0000
  H   H63       1.0  0.58980  0.45782  0.91362  1.0000
  H   H64       1.0  0.49696  0.92925  0.92944  1.0000
  H   H65       1.0  0.51308  0.08133  0.81227  1.0000
  H   H66       1.0  0.56743  0.48911  0.91535  1.0000
  H   H67       1.0  0.42170  0.92162  0.55758  1.0000
  H   H68       1.0  0.57796  0.06628  0.64906  1.0000
  H   H69       1.0  0.48331  0.41385  0.54385  1.0000
  H   H70       1.0  0.39067  0.86713  0.52558  1.0000
  H   H71       1.0  0.60811  0.11949  0.64846  1.0000
  H   H72       1.0  0.50563  0.38277  0.54553  1.0000
  C   C1        1.0  0.40514  0.83384  0.18859  1.0000
  C   C2        1.0  0.16130  0.56719  0.22095  1.0000
  C   C3        1.0  0.43319  0.59628  0.18364  1.0000
  C   C4        1.0  0.58890  0.15969  0.22000  1.0000
  C   C5        1.0  0.83505  0.42743  0.22494  1.0000
  C   C6        1.0  0.56977  0.40690  0.22538  1.0000
  C   C7        1.0  0.68180  0.31748  0.28910  1.0000
  C   C8        1.0  0.68292  0.36297  0.29119  1.0000
  C   C9        1.0  0.63698  0.31835  0.28514  1.0000
  C   C10       1.0  0.31934  0.68286  0.27099  1.0000
  C   C11       1.0  0.31963  0.63784  0.26455  1.0000
  C   C12       1.0  0.36492  0.68342  0.27600  1.0000
  C   C13       1.0  0.69785  0.34756  0.28812  1.0000
  C   C14       1.0  0.65253  0.34859  0.28847  1.0000
  C   C15       1.0  0.65149  0.30247  0.28940  1.0000
  C   C16       1.0  0.30404  0.65257  0.26757  1.0000
  C   C17       1.0  0.35027  0.65293  0.26946  1.0000
  C   C18       1.0  0.34977  0.69856  0.27467  1.0000
  C   C19       1.0  0.63526  0.27097  0.29405  1.0000
  C   C20       1.0  0.63742  0.36540  0.29150  1.0000
  C   C21       1.0  0.27215  0.63698  0.26770  1.0000
  C   C22       1.0  0.36675  0.63737  0.26740  1.0000
  C   C23       1.0  0.60910  0.25863  0.34827  1.0000
  C   C24       1.0  0.65196  0.39398  0.41184  1.0000
  C   C25       1.0  0.26225  0.65192  0.36888  1.0000
  C   C26       1.0  0.35639  0.61030  0.31245  1.0000
  C   C27       1.0  0.59342  0.22880  0.34839  1.0000
  C   C28       1.0  0.63812  0.41015  0.41374  1.0000
  C   C29       1.0  0.23219  0.63772  0.36765  1.0000
  C   C30       1.0  0.37164  0.59554  0.30586  1.0000
  C   C31       1.0  0.60323  0.20985  0.29473  1.0000
  C   C32       1.0  0.60919  0.39842  0.29471  1.0000
  C   C33       1.0  0.21066  0.60783  0.26506  1.0000
  C   C34       1.0  0.39815  0.60714  0.25510  1.0000
  C   C35       1.0  0.62990  0.22223  0.24537  1.0000
  C   C36       1.0  0.59464  0.36983  0.17285  1.0000
  C   C37       1.0  0.22038  0.59284  0.16163  1.0000
  C   C38       1.0  0.40925  0.63478  0.21570  1.0000
  C   C39       1.0  0.64526  0.25196  0.24355  1.0000
  C   C40       1.0  0.60844  0.35362  0.17281  1.0000
  C   C41       1.0  0.25053  0.60713  0.16395  1.0000
  C   C42       1.0  0.39373  0.64921  0.22037  1.0000
  C   C43       1.0  0.55789  0.42614  0.23055  1.0000
  C   C44       1.0  0.57575  0.45636  0.33458  1.0000
  C   C45       1.0  0.56402  0.47431  0.33431  1.0000
  C   C46       1.0  0.53384  0.46259  0.22956  1.0000
  C   C47       1.0  0.51584  0.43219  0.12685  1.0000
  C   C48       1.0  0.52782  0.41441  0.12801  1.0000
  C   C49       1.0  0.47646  0.95805  0.24822  1.0000
  C   C50       1.0  0.04021  0.51593  0.24434  1.0000
  C   C51       1.0  0.48787  0.52833  0.19448  1.0000
  C   C52       1.0  0.52351  0.03938  0.24807  1.0000
  C   C53       1.0  0.95910  0.48136  0.25923  1.0000
  C   C54       1.0  0.52202  0.48089  0.22484  1.0000
  C   C55       1.0  0.49201  0.98453  0.25211  1.0000
  C   C56       1.0  0.01404  0.50464  0.25016  1.0000
  C   C57       1.0  0.49918  0.51324  0.20510  1.0000
  C   C58       1.0  0.50866  0.01328  0.25233  1.0000
  C   C59       1.0  0.98535  0.49241  0.25517  1.0000
  C   C60       1.0  0.51127  0.49648  0.21577  1.0000
  C   C61       1.0  0.40711  0.83529  0.69365  1.0000
  C   C62       1.0  0.15984  0.56771  0.70423  1.0000
  C   C63       1.0  0.42549  0.58947  0.68295  1.0000
  C   C64       1.0  0.59609  0.16186  0.73122  1.0000
  C   C65       1.0  0.83445  0.43169  0.71516  1.0000
  C   C66       1.0  0.56251  0.40028  0.72162  1.0000
  C   C67       1.0  0.68247  0.31979  0.78119  1.0000
  C   C68       1.0  0.68158  0.36428  0.78378  1.0000
  C   C69       1.0  0.63655  0.31850  0.77611  1.0000
  C   C70       1.0  0.31950  0.68437  0.77472  1.0000
  C   C71       1.0  0.31881  0.63896  0.77017  1.0000
  C   C72       1.0  0.36457  0.68372  0.77996  1.0000
  C   C73       1.0  0.69756  0.34992  0.78054  1.0000
  C   C74       1.0  0.65109  0.34871  0.77913  1.0000
  C   C75       1.0  0.65222  0.30378  0.78148  1.0000
  C   C76       1.0  0.30372  0.65412  0.77206  1.0000
  C   C77       1.0  0.34936  0.65327  0.77475  1.0000
  C   C78       1.0  0.34992  0.69940  0.77789  1.0000
  C   C79       1.0  0.63722  0.27239  0.78756  1.0000
  C   C80       1.0  0.72935  0.36589  0.77837  1.0000
  C   C81       1.0  0.36635  0.73123  0.78004  1.0000
  C   C82       1.0  0.27185  0.63848  0.77125  1.0000
  C   C83       1.0  0.61236  0.25977  0.85283  1.0000
  C   C84       1.0  0.74884  0.35656  0.84179  1.0000
  C   C85       1.0  0.39672  0.75139  0.88649  1.0000
  C   C86       1.0  0.26133  0.65328  0.86739  1.0000
  C   C87       1.0  0.59779  0.22996  0.85407  1.0000
  C   C88       1.0  0.77888  0.37181  0.84247  1.0000
  C   C89       1.0  0.41211  0.78144  0.88997  1.0000
  C   C90       1.0  0.23129  0.63841  0.86697  1.0000
  C   C91       1.0  0.60730  0.21130  0.78933  1.0000
  C   C92       1.0  0.79098  0.39716  0.77962  1.0000
  C   C93       1.0  0.39797  0.79258  0.78569  1.0000
  C   C94       1.0  0.21041  0.60811  0.76922  1.0000
  C   C95       1.0  0.63266  0.22405  0.72763  1.0000
  C   C96       1.0  0.77164  0.40678  0.71680  1.0000
  C   C97       1.0  0.36738  0.77245  0.68011  1.0000
  C   C98       1.0  0.22081  0.59326  0.67101  1.0000
  C   C99       1.0  0.64711  0.25381  0.72649  1.0000
  C   C100      1.0  0.74160  0.39136  0.71610  1.0000
  C   C101      1.0  0.35203  0.74249  0.67825  1.0000
  C   C102      1.0  0.25088  0.60820  0.67240  1.0000
  C   C103      1.0  0.42591  0.86722  0.71159  1.0000
  C   C104      1.0  0.57818  0.13086  0.73431  1.0000
  C   C105      1.0  0.54945  0.41851  0.72757  1.0000
  C   C106      1.0  0.45607  0.88521  0.82603  1.0000
  C   C107      1.0  0.55104  0.11963  0.77888  1.0000
  C   C108      1.0  0.56665  0.44866  0.83255  1.0000
  C   C109      1.0  0.47366  0.91554  0.84185  1.0000
  C   C110      1.0  0.53389  0.08988  0.77645  1.0000
  C   C111      1.0  0.55423  0.46597  0.83289  1.0000
  C   C112      1.0  0.46152  0.92924  0.74543  1.0000
  C   C113      1.0  0.54346  0.07012  0.73063  1.0000
  C   C114      1.0  0.52401  0.45376  0.72663  1.0000
  C   C115      1.0  0.43107  0.91132  0.63333  1.0000
  C   C116      1.0  0.57065  0.08136  0.68584  1.0000
  C   C117      1.0  0.50659  0.42338  0.62399  1.0000
  C   C118      1.0  0.41383  0.88081  0.61582  1.0000
  C   C119      1.0  0.58750  0.11117  0.68662  1.0000
  C   C120      1.0  0.51920  0.40612  0.62561  1.0000
  C   C121      1.0  0.47961  0.95972  0.75316  1.0000
  C   C122      1.0  0.04015  0.51709  0.75075  1.0000
  C   C123      1.0  0.47803  0.51964  0.70321  1.0000
  C   C124      1.0  0.52654  0.04022  0.73571  1.0000
  C   C125      1.0  0.95868  0.48543  0.75261  1.0000
  C   C126      1.0  0.51156  0.47154  0.72263  1.0000
  C   C127      1.0  0.49507  0.98590  0.75079  1.0000
  C   C128      1.0  0.01392  0.50679  0.75358  1.0000
  C   C129      1.0  0.48886  0.50409  0.70947  1.0000
  C   C130      1.0  0.51169  0.01437  0.74478  1.0000
  C   C131      1.0  0.98511  0.49559  0.75425  1.0000
  C   C132      1.0  0.50073  0.48710  0.71667  1.0000
  N   N1        1.0  0.82168  0.40568  0.29274  1.0000
  N   N2        1.0  0.59785  0.41703  0.30556  1.0000
  N   N3        1.0  0.58638  0.18043  0.30433  1.0000
  N   N4        1.0  0.18115  0.59578  0.27572  1.0000
  N   N5        1.0  0.41114  0.58995  0.24958  1.0000
  N   N6        1.0  0.41384  0.82245  0.30015  1.0000
  N   N7        1.0  0.82147  0.41035  0.78637  1.0000
  N   N8        1.0  0.59106  0.41184  0.79770  1.0000
  N   N9        1.0  0.59054  0.18158  0.79507  1.0000
  N   N10       1.0  0.18111  0.59550  0.78407  1.0000
  N   N11       1.0  0.40562  0.58587  0.76316  1.0000
  N   N12       1.0  0.41596  0.82313  0.79863  1.0000
  C  Sn1       1.0  0.43658  0.53143  0.16494  1.0000
  C   C133      1.0  0.46443  0.53914  0.13981  1.0000
  C  Sn2       1.0  0.48564  0.56869  0.14877  1.0000
  C  Sn3       1.0  0.47888  0.59101  0.18369  1.0000
  C   C134      1.0  0.45104  0.58330  0.20883  1.0000
  C  Sn4       1.0  0.42981  0.55375  0.19986  1.0000
  O  Te1       1.0  0.41571  0.50175  0.15541  1.0000
  O  Te2       1.0  0.51333  0.57585  0.12313  1.0000
  O  Te3       1.0  0.49977  0.62071  0.19320  1.0000
  O  Te4       1.0  0.40214  0.54659  0.22551  1.0000
  Mg  Mg1       1.0  0.53437  0.61939  0.14903  1.0000
  Mg  Mg2       1.0  0.38109  0.50306  0.19974  1.0000
  C  Sn5       1.0  0.35797  0.76668  0.21529  1.0000
  C   C135      1.0  0.38812  0.78958  0.30767  1.0000
  C  Sn6       1.0  0.40916  0.78273  0.37941  1.0000
  C  Sn7       1.0  0.39987  0.75236  0.35829  1.0000
  C   C136      1.0  0.36973  0.72948  0.26593  1.0000
  C  Sn8       1.0  0.34868  0.73631  0.19416  1.0000
  O  Te5       1.0  0.33733  0.77404  0.14467  1.0000
  O  Te6       1.0  0.43918  0.80601  0.47129  1.0000
  O  Te7       1.0  0.42054  0.74501  0.42901  1.0000
  O  Te8       1.0  0.31868  0.71305  0.10231  1.0000
  Mg  Mg3       1.0  0.45888  0.78462  0.54316  1.0000
  Mg  Mg4       1.0  0.29896  0.73441  0.03031  1.0000
  C  Sn9       1.0  0.09811  0.56678  0.81143  1.0000
  C   C137      1.0  0.07283  0.53778  0.72500  1.0000
  C  Sn10      1.0  0.07644  0.51529  0.64535  1.0000
  C  Sn11      1.0  0.10592  0.52191  0.65231  1.0000
  C   C138      1.0  0.13118  0.55089  0.73873  1.0000
  C  Sn12      1.0  0.12759  0.57340  0.81840  1.0000
  O  Te9       1.0  0.09397  0.58892  0.89015  1.0000
  O  Te10      1.0  0.05082  0.48647  0.55965  1.0000
  O  Te11      1.0  0.11004  0.49974  0.57349  1.0000
  O  Te12      1.0  0.15318  0.60220  0.90407  1.0000
  Mg  Mg5       1.0  0.06814  0.46392  0.47246  1.0000
  Mg  Mg6       1.0  0.13589  0.62477  0.99139  1.0000
  C  Sn13      1.0  0.64186  0.40989  0.88459  1.0000
  C   C139      1.0  0.61346  0.40076  0.77252  1.0000
  C  Sn14      1.0  0.59347  0.37103  0.66797  1.0000
  C  Sn15      1.0  0.60204  0.34998  0.67567  1.0000
  C   C140      1.0  0.63042  0.35912  0.78771  1.0000
  C  Sn16      1.0  0.65043  0.38884  0.89229  1.0000
  O  Te13      1.0  0.66147  0.43972  0.98794  1.0000
  O  Te14      1.0  0.56520  0.36244  0.55690  1.0000
  O  Te15      1.0  0.58240  0.32013  0.57219  1.0000
  O  Te16      1.0  0.62525  0.34868  0.00333  1.0000
  Mg  Mg7       1.0  0.54637  0.31926  0.44177  1.0000
  Mg  Mg8       1.0  0.64410  0.39184  0.11857  1.0000
  C  Sn17      1.0  0.42849  0.52508  0.69503  1.0000
  C   C141      1.0  0.45490  0.53082  0.65552  1.0000
  C  Sn18      1.0  0.47560  0.55919  0.64459  1.0000
  C  Sn19      1.0  0.46981  0.58231  0.67386  1.0000
  C   C142      1.0  0.44343  0.57657  0.71337  1.0000
  C  Sn20      1.0  0.42270  0.54821  0.72431  1.0000
  O  Te17      1.0  0.40811  0.49656  0.70530  1.0000
  O  Te18      1.0  0.50184  0.56438  0.60484  1.0000
  O  Te19      1.0  0.49022  0.61085  0.66356  1.0000
  O  Te20      1.0  0.39649  0.54301  0.76405  1.0000
  Mg  Mg9       1.0  0.52274  0.60694  0.60564  1.0000
  Mg  Mg10      1.0  0.37558  0.50046  0.76338  1.0000
  C  Sn21      1.0  0.35733  0.60709  0.85738  1.0000
  C   C143      1.0  0.36690  0.63497  0.82738  1.0000
  C  Sn22      1.0  0.38961  0.64738  0.74746  1.0000
  C  Sn23      1.0  0.40301  0.63158  0.69634  1.0000
  C   C144      1.0  0.39343  0.60371  0.72632  1.0000
  C  Sn24      1.0  0.37074  0.59129  0.80627  1.0000
  O  Te21      1.0  0.33460  0.59511  0.93747  1.0000
  O  Te22      1.0  0.39881  0.67530  0.71889  1.0000
  O  Te23      1.0  0.42576  0.64359  0.61620  1.0000
  O  Te24      1.0  0.36153  0.56339  0.83481  1.0000
  Mg  Mg11      1.0  0.43057  0.68228  0.60521  1.0000
  Mg  Mg12      1.0  0.32976  0.55637  0.94839  1.0000
  C  Sn25      1.0  0.11834  0.56930  0.37250  1.0000
  C   C145      1.0  0.13033  0.55545  0.28448  1.0000
  C  Sn26      1.0  0.11105  0.52780  0.15497  1.0000
  C  Sn27      1.0  0.07912  0.51372  0.11246  1.0000
  C   C146      1.0  0.06715  0.52757  0.20044  1.0000
  C  Sn28      1.0  0.08641  0.55521  0.33000  1.0000
  O  Te25      1.0  0.13804  0.59693  0.50151  1.0000
  O  Te26      1.0  0.12357  0.51439  0.06881  1.0000
  O  Te27      1.0  0.11284  0.53482  0.98334  1.0000
  O  Te28      1.0  0.07391  0.56862  0.41610  1.0000
  Mg  Mg13      1.0  0.14080  0.52547  0.90274  1.0000
  Mg  Mg14      1.0  0.11008  0.60630  0.58212  1.0000
  C  Sn29      1.0  0.47166  0.90656  0.31309  1.0000
  C   C147      1.0  0.46374  0.92304  0.22107  1.0000
  C  Sn30      1.0  0.43343  0.91108  0.12711  1.0000
  C  Sn31      1.0  0.41057  0.88205  0.12516  1.0000
  C   C148      1.0  0.41849  0.86560  0.21716  1.0000
  C  Sn32      1.0  0.44880  0.87754  0.31114  1.0000
  O  Te29      1.0  0.50210  0.91896  0.40615  1.0000
  O  Te30      1.0  0.42606  0.92797  0.03607  1.0000
  O  Te31      1.0  0.38011  0.86966  0.03199  1.0000
  O  Te32      1.0  0.45617  0.86067  0.40216  1.0000
  Mg  Mg15      1.0  0.43485  0.95014  0.92863  1.0000
  Mg  Mg16      1.0  0.50080  0.88724  0.50971  1.0000
  C  Sn33      1.0  0.88479  0.46965  0.61370  1.0000
  C   C149      1.0  0.86717  0.44507  0.67110  1.0000
  C  Sn34      1.0  0.88100  0.43519  0.78607  1.0000
  C  Sn35      1.0  0.91311  0.45021  0.84498  1.0000
  C   C150      1.0  0.93070  0.47478  0.78760  1.0000
  C  Sn36      1.0  0.91689  0.48467  0.67261  1.0000
  O  Te33      1.0  0.87047  0.47914  0.49877  1.0000
  O  Te34      1.0  0.86292  0.41056  0.84159  1.0000
  O  Te35      1.0  0.92741  0.44070  0.95999  1.0000
  O  Te36      1.0  0.93496  0.50928  0.61712  1.0000
  Mg  Mg17      1.0  0.89301  0.40610  0.99852  1.0000
  Mg  Mg18      1.0  0.90489  0.51378  0.46027  1.0000
  C  Sn37      1.0  0.76809  0.40657  0.26547  1.0000
  C   C151      1.0  0.78996  0.40002  0.32418  1.0000
  C  Sn38      1.0  0.78135  0.37224  0.35305  1.0000
  C  Sn39      1.0  0.75023  0.35052  0.32251  1.0000
  C   C152      1.0  0.72837  0.35707  0.26381  1.0000
  C  Sn40      1.0  0.73696  0.38485  0.23493  1.0000
  O  Te37      1.0  0.77721  0.43449  0.23747  1.0000
  O  Te38      1.0  0.80363  0.36622  0.41182  1.0000
  O  Te39      1.0  0.74112  0.32258  0.35058  1.0000
  O  Te40      1.0  0.71470  0.39087  0.17618  1.0000
  Mg  Mg19      1.0  0.77990  0.32494  0.43081  1.0000
  Mg  Mg20      1.0  0.73841  0.43213  0.15705  1.0000
  C  Sn41      1.0  0.54951  0.11549  0.36116  1.0000
  C   C153      1.0  0.57338  0.12905  0.29076  1.0000
  C  Sn42      1.0  0.57914  0.11154  0.17705  1.0000
  C  Sn43      1.0  0.56065  0.07982  0.13269  1.0000
  C   C154      1.0  0.53680  0.06628  0.20305  1.0000
  C  Sn44      1.0  0.53102  0.08376  0.31680  1.0000
  O  Te41      1.0  0.54417  0.13342  0.47456  1.0000
  O  Te42      1.0  0.60314  0.12561  0.10837  1.0000
  O  Te43      1.0  0.56602  0.06189  0.01919  1.0000
  O  Te44      1.0  0.50704  0.06971  0.38543  1.0000
  Mg  Mg21      1.0  0.65479  0.14028  0.95940  1.0000
  Mg  Mg22      1.0  0.50877  0.10378  0.53434  1.0000
  C  Sn45      1.0  0.88561  0.46620  0.12894  1.0000
  C   C155      1.0  0.86779  0.44098  0.18086  1.0000
  C  Sn46      1.0  0.88138  0.43026  0.29041  1.0000
  C  Sn47      1.0  0.91347  0.44508  0.34940  1.0000
  C   C156      1.0  0.93128  0.47029  0.29752  1.0000
  C  Sn48      1.0  0.91770  0.48101  0.18794  1.0000
  O  Te45      1.0  0.87154  0.47652  0.01937  1.0000
  O  Te46      1.0  0.86309  0.40500  0.34049  1.0000
  O  Te47      1.0  0.92754  0.43474  0.45906  1.0000
  O  Te48      1.0  0.93598  0.50626  0.13789  1.0000
  Mg  Mg23      1.0  0.89291  0.39950  0.49132  1.0000
  Mg  Mg24      1.0  0.95961  0.56055  0.98715  1.0000
