data_image0
_chemical_formula_structural       H24C60N12C2Sn2C2HTe2HMgC2Sn2C2HTe2HMgC2Sn2C2HTe2HMgC2Sn2C2HTe2HMgC2Sn2C2HTe2HMgC2Sn2C2HTe2HMgC2Sn2C2HTe2HMgC2Sn2C2HTe2HMgC2Sn2C2HTe2HMgC2Sn2C2HTe2HMgC2Sn2C2HTe2HMgC2Sn2C2HTe2HMgC2Sn2C2HTe2HMgC2Sn2C2HTe2HMgC2Sn2C2HTe2HMgC2Sn2C2HTe2HMgC2Sn2C2HTe2HMgC2Sn2C2HTe2HMgC2Sn2C2HTe2HMgC2Sn2C2HTe2HMgC2Sn2C2HTe2HMgC2Sn2C2HTe2HMgC2Sn2C2HTe2HMgC2Sn2C2HTe2HMg
_chemical_formula_sum              "H72 C156 N12 Sn48 Te48 Mg24"
_cell_length_a       51.6817
_cell_length_b       51.6506
_cell_length_c       7.96421
_cell_angle_alpha    86.7145
_cell_angle_beta     86.0512
_cell_angle_gamma    120.39

_symmetry_space_group_name_H-M    'P1'
_space_group_IT_number       1

loop_
  _space_group_symop_operation_xyz
  'x, y, z'

loop_
  _atom_site_type_symbol
  _atom_site_label
  _atom_site_symmetry_multiplicity
  _atom_site_fract_x
  _atom_site_fract_y
  _atom_site_fract_z
  _atom_site_occupancy
  H   H1        1.0  0.38407  0.83078  0.31470  1.0000
  H   H2        1.0  0.61372  0.16761  0.62080  1.0000
  H   H3        1.0  0.70067  0.30939  0.25568  1.0000
  H   H4        1.0  0.29733  0.68945  0.77162  1.0000
  H   H5        1.0  0.17515  0.57149  0.08193  1.0000
  H   H6        1.0  0.83346  0.43185  0.63455  1.0000
  H   H7        1.0  0.70214  0.39323  0.26039  1.0000
  H   H8        1.0  0.29539  0.60516  0.77676  1.0000
  H   H9        1.0  0.44044  0.59513  0.06329  1.0000
  H   H10       1.0  0.56296  0.40568  0.60428  1.0000
  H   H11       1.0  0.61862  0.31081  0.23217  1.0000
  H   H12       1.0  0.37977  0.68781  0.77012  1.0000
  H   H13       1.0  0.60394  0.16960  0.04242  1.0000
  H   H14       1.0  0.39490  0.83723  0.65775  1.0000
  H   H15       1.0  0.31653  0.69952  0.30514  1.0000
  H   H16       1.0  0.68350  0.29765  0.78498  1.0000
  H   H17       1.0  0.83892  0.46080  0.22733  1.0000
  H   H18       1.0  0.16342  0.54775  0.59973  1.0000
  H   H19       1.0  0.31233  0.61556  0.23906  1.0000
  H   H20       1.0  0.69062  0.38421  0.76358  1.0000
  H   H21       1.0  0.55300  0.38309  0.21230  1.0000
  H   H22       1.0  0.44450  0.61602  0.66996  1.0000
  H   H23       1.0  0.39769  0.69545  0.27528  1.0000
  H   H24       1.0  0.60387  0.30353  0.76746  1.0000
  C   C1        1.0  0.40832  0.84248  0.32911  1.0000
  C   C2        1.0  0.59044  0.15551  0.68353  1.0000
  C   C3        1.0  0.68883  0.32179  0.25127  1.0000
  C   C4        1.0  0.30920  0.67706  0.77206  1.0000
  C   C5        1.0  0.70499  0.35317  0.25740  1.0000
  C   C6        1.0  0.29263  0.64559  0.76967  1.0000
  C   C7        1.0  0.47687  0.96571  0.08735  1.0000
  C   C8        1.0  0.52165  0.03345  0.54306  1.0000
  C   C9        1.0  0.49204  0.99190  0.17457  1.0000
  C   C10       1.0  0.50693  0.00710  0.66231  1.0000
  C   C11       1.0  0.16577  0.58043  0.17434  1.0000
  C   C12       1.0  0.83849  0.42172  0.74351  1.0000
  C   C13       1.0  0.68948  0.36895  0.25481  1.0000
  C   C14       1.0  0.30801  0.62961  0.77457  1.0000
  C   C15       1.0  0.65818  0.35399  0.24849  1.0000
  C   C16       1.0  0.33940  0.64462  0.77522  1.0000
  C   C17       1.0  0.03736  0.51736  0.31217  1.0000
  C   C18       1.0  0.96427  0.48157  0.85601  1.0000
  C   C19       1.0  0.01415  0.50867  0.20365  1.0000
  C   C20       1.0  0.98749  0.48905  0.72273  1.0000
  C   C21       1.0  0.43084  0.58084  0.18486  1.0000
  C   C22       1.0  0.57320  0.42097  0.70171  1.0000
  C   C23       1.0  0.64281  0.32277  0.23943  1.0000
  C   C24       1.0  0.35536  0.67612  0.77197  1.0000
  C   C25       1.0  0.65759  0.30630  0.24120  1.0000
  C   C26       1.0  0.34069  0.69277  0.77416  1.0000
  C   C27       1.0  0.48396  0.51709  0.46166  1.0000
  C   C28       1.0  0.51968  0.48625  0.95620  1.0000
  C   C29       1.0  0.49632  0.50270  0.36377  1.0000
  C   C30       1.0  0.50813  0.50129  0.85714  1.0000
  C   C31       1.0  0.58667  0.16112  0.15239  1.0000
  C   C32       1.0  0.41042  0.84109  0.75385  1.0000
  C   C33       1.0  0.32756  0.68647  0.29056  1.0000
  C   C34       1.0  0.67318  0.31147  0.77973  1.0000
  C   C35       1.0  0.31016  0.65565  0.27109  1.0000
  C   C36       1.0  0.69118  0.34287  0.77830  1.0000
  C   C37       1.0  0.51770  0.03528  0.37393  1.0000
  C   C38       1.0  0.48023  0.96359  0.91619  1.0000
  C   C39       1.0  0.50290  0.01039  0.27686  1.0000
  C   C40       1.0  0.49573  0.98851  0.78754  1.0000
  C   C41       1.0  0.84842  0.44673  0.26389  1.0000
  C   C42       1.0  0.15126  0.55709  0.66732  1.0000
  C   C43       1.0  0.32518  0.63951  0.25374  1.0000
  C   C44       1.0  0.67695  0.35982  0.76788  1.0000
  C   C45       1.0  0.35655  0.65341  0.25558  1.0000
  C   C46       1.0  0.64562  0.34637  0.76452  1.0000
  C   C47       1.0  0.96898  0.49008  0.01781  1.0000
  C   C48       1.0  0.03274  0.50835  0.48427  1.0000
  C   C49       1.0  0.99564  0.50109  0.10068  1.0000
  C   C50       1.0  0.00567  0.49612  0.59678  1.0000
  C   C51       1.0  0.56646  0.40604  0.24953  1.0000
  C   C52       1.0  0.43114  0.59280  0.73282  1.0000
  C   C53       1.0  0.37334  0.68441  0.27351  1.0000
  C   C54       1.0  0.62820  0.31471  0.76970  1.0000
  C   C55       1.0  0.35898  0.70119  0.29186  1.0000
  C   C56       1.0  0.64186  0.29713  0.77468  1.0000
  C   C57       1.0  0.51582  0.48018  0.13042  1.0000
  C   C58       1.0  0.48720  0.52305  0.62844  1.0000
  C   C59       1.0  0.50467  0.49294  0.24858  1.0000
  C   C60       1.0  0.49917  0.51101  0.74516  1.0000
  N   N1        1.0  0.83170  0.41799  0.30683  1.0000
  N   N2        1.0  0.16484  0.58102  0.74507  1.0000
  N   N3        1.0  0.59386  0.41713  0.28597  1.0000
  N   N4        1.0  0.40340  0.58107  0.79758  1.0000
  N   N5        1.0  0.58422  0.17834  0.25582  1.0000
  N   N6        1.0  0.41182  0.81943  0.83400  1.0000
  N   N7        1.0  0.18205  0.60059  0.27092  1.0000
  N   N8        1.0  0.81764  0.39867  0.84214  1.0000
  N   N9        1.0  0.41030  0.58077  0.28710  1.0000
  N   N10       1.0  0.59435  0.42184  0.78321  1.0000
  N   N11       1.0  0.42227  0.82783  0.34930  1.0000
  N   N12       1.0  0.57819  0.16909  0.75629  1.0000
  C   C61       1.0  0.65082  0.24965  0.15158  1.0000
  C   C62       1.0  0.64269  0.26969  0.21248  1.0000
  C  Sn1       1.0  0.61416  0.25878  0.30021  1.0000
  C  Sn2       1.0  0.59344  0.22722  0.32731  1.0000
  C   C63       1.0  0.60180  0.20735  0.26599  1.0000
  C   C64       1.0  0.63040  0.21851  0.17831  1.0000
  H   H25       1.0  0.67295  0.25828  0.08382  1.0000
  O  Te1       1.0  0.60640  0.27912  0.36014  1.0000
  O  Te2       1.0  0.56479  0.21570  0.41464  1.0000
  H   H26       1.0  0.63670  0.20298  0.13127  1.0000
  Mg  Mg1       1.0  0.56471  0.25247  0.47180  1.0000
  C   C65       1.0  0.35961  0.77008  0.71537  1.0000
  C   C66       1.0  0.38527  0.78630  0.79805  1.0000
  C  Sn3       1.0  0.39914  0.77182  0.87003  1.0000
  C  Sn4       1.0  0.38706  0.74053  0.85880  1.0000
  C   C67       1.0  0.36140  0.72451  0.77571  1.0000
  C   C68       1.0  0.34769  0.73922  0.70417  1.0000
  H   H27       1.0  0.34901  0.78146  0.65993  1.0000
  O  Te3       1.0  0.42475  0.78836  0.95223  1.0000
  O  Te4       1.0  0.40049  0.72550  0.92957  1.0000
  H   H28       1.0  0.32784  0.72666  0.64007  1.0000
  Mg  Mg2       1.0  0.45527  0.77689  0.02866  1.0000
  C   C69       1.0  0.40953  0.89588  0.21333  1.0000
  C   C70       1.0  0.41909  0.87812  0.29599  1.0000
  C  Sn5       1.0  0.44842  0.89130  0.34153  1.0000
  C  Sn6       1.0  0.46849  0.92285  0.30349  1.0000
  C   C71       1.0  0.45870  0.94043  0.22087  1.0000
  C   C72       1.0  0.42931  0.92700  0.17582  1.0000
  H   H29       1.0  0.38679  0.88550  0.17856  1.0000
  O  Te5       1.0  0.45761  0.87323  0.42400  1.0000
  O  Te6       1.0  0.49791  0.93661  0.34763  1.0000
  H   H30       1.0  0.42191  0.94076  0.11192  1.0000
  Mg  Mg3       1.0  0.49991  0.90245  0.45837  1.0000
  C   C73       1.0  0.58797  0.10446  0.55440  1.0000
  C   C74       1.0  0.57862  0.12070  0.65024  1.0000
  C  Sn7       1.0  0.54990  0.10613  0.74109  1.0000
  C  Sn8       1.0  0.53024  0.07472  0.73569  1.0000
  C   C75       1.0  0.53982  0.05867  0.63953  1.0000
  C   C76       1.0  0.56860  0.07347  0.54906  1.0000
  H   H31       1.0  0.61025  0.11591  0.48447  1.0000
  O  Te7       1.0  0.54091  0.12270  0.83615  1.0000
  O  Te8       1.0  0.50143  0.05959  0.82534  1.0000
  H   H32       1.0  0.57585  0.06089  0.47496  1.0000
  Mg  Mg4       1.0  0.49949  0.09197  0.93662  1.0000
  C   C77       1.0  0.78065  0.41390  0.16519  1.0000
  C   C78       1.0  0.79776  0.40769  0.27096  1.0000
  C  Sn9       1.0  0.78425  0.38066  0.37740  1.0000
  C  Sn10      1.0  0.75303  0.35949  0.37764  1.0000
  C   C79       1.0  0.73611  0.36591  0.27127  1.0000
  C   C80       1.0  0.74986  0.39303  0.16530  1.0000
  H   H33       1.0  0.79128  0.43488  0.08313  1.0000
  O  Te9       1.0  0.80167  0.37482  0.48231  1.0000
  O  Te10      1.0  0.73896  0.33229  0.48272  1.0000
  H   H34       1.0  0.73661  0.39782  0.08335  1.0000
  Mg  Mg5       1.0  0.77223  0.33461  0.60296  1.0000
  C   C81       1.0  0.22299  0.58775  0.65513  1.0000
  C   C82       1.0  0.20031  0.59151  0.73448  1.0000
  C  Sn11      1.0  0.20782  0.61629  0.82513  1.0000
  C  Sn12      1.0  0.23862  0.63767  0.83629  1.0000
  C   C83       1.0  0.26113  0.63371  0.75636  1.0000
  C   C84       1.0  0.25337  0.60883  0.66602  1.0000
  H   H35       1.0  0.21698  0.56851  0.58515  1.0000
  O  Te11      1.0  0.18488  0.61970  0.90369  1.0000
  O  Te12      1.0  0.24675  0.66264  0.92602  1.0000
  H   H36       1.0  0.27093  0.60593  0.60451  1.0000
  Mg  Mg6       1.0  0.22760  0.67654  0.01140  1.0000
  C   C85       1.0  0.09075  0.52797  0.10240  1.0000
  C   C86       1.0  0.07248  0.53408  0.21045  1.0000
  C  Sn13      1.0  0.08537  0.55956  0.29858  1.0000
  C  Sn14      1.0  0.11715  0.57925  0.27786  1.0000
  C   C87       1.0  0.13524  0.57295  0.16936  1.0000
  C   C88       1.0  0.12210  0.54739  0.08183  1.0000
  H   H37       1.0  0.08059  0.50819  0.03459  1.0000
  O  Te13      1.0  0.06678  0.56532  0.40608  1.0000
  O  Te14      1.0  0.13063  0.60489  0.36436  1.0000
  H   H38       1.0  0.11599  0.52358  0.99809  1.0000
  Mg  Mg7       1.0  0.09578  0.60310  0.49649  1.0000
  C   C89       1.0  0.90352  0.43018  0.91732  1.0000
  C   C90       1.0  0.92792  0.45615  0.82783  1.0000
  C  Sn15      1.0  0.92302  0.47328  0.70590  1.0000
  C  Sn16      1.0  0.89310  0.46419  0.67328  1.0000
  C   C91       1.0  0.86884  0.43819  0.76357  1.0000
  C   C92       1.0  0.87400  0.42121  0.88526  1.0000
  H   H39       1.0  0.92778  0.43615  0.01154  1.0000
  O  Te15      1.0  0.94766  0.49916  0.61760  1.0000
  O  Te16      1.0  0.88756  0.48090  0.55215  1.0000
  H   H40       1.0  0.85510  0.40111  0.95461  1.0000
  Mg  Mg8       1.0  0.92856  0.51445  0.46475  1.0000
  C   C93       1.0  0.59920  0.36815  0.17164  1.0000
  C   C94       1.0  0.60416  0.39279  0.25802  1.0000
  C  Sn17      1.0  0.62965  0.40752  0.34393  1.0000
  C  Sn18      1.0  0.65053  0.39734  0.34307  1.0000
  C   C95       1.0  0.64537  0.37269  0.25617  1.0000
  C   C96       1.0  0.61979  0.35811  0.17067  1.0000
  H   H41       1.0  0.57942  0.35689  0.10540  1.0000
  O  Te17      1.0  0.63426  0.43209  0.42965  1.0000
  O  Te18      1.0  0.67620  0.41165  0.42783  1.0000
  H   H42       1.0  0.61596  0.33905  0.10371  1.0000
  Mg  Mg9       1.0  0.67258  0.44416  0.52653  1.0000
  C   C97       1.0  0.39795  0.63015  0.65386  1.0000
  C   C98       1.0  0.39267  0.60507  0.76006  1.0000
  C  Sn19      1.0  0.36708  0.59016  0.87893  1.0000
  C  Sn20      1.0  0.34643  0.60060  0.89138  1.0000
  C   C99       1.0  0.35191  0.62570  0.78448  1.0000
  C   C100      1.0  0.37760  0.64046  0.66602  1.0000
  H   H43       1.0  0.41782  0.64156  0.56214  1.0000
  O  Te19      1.0  0.36215  0.56514  0.98409  1.0000
  O  Te20      1.0  0.34094  0.60521  0.00902  1.0000
  H   H44       1.0  0.38167  0.65987  0.58374  1.0000
  Mg  Mg10      1.0  0.34408  0.57208  0.12434  1.0000
  C   C101      1.0  0.42503  0.53139  0.39640  1.0000
  C   C102      1.0  0.43790  0.55567  0.26961  1.0000
  C  Sn21      1.0  0.46559  0.56439  0.17776  1.0000
  C  Sn22      1.0  0.48062  0.54846  0.21377  1.0000
  C   C103      1.0  0.46755  0.52419  0.34077  1.0000
  C   C104      1.0  0.43984  0.51566  0.43194  1.0000
  H   H45       1.0  0.40358  0.52478  0.46688  1.0000
  O  Te21      1.0  0.47813  0.58870  0.05156  1.0000
  O  Te22      1.0  0.50831  0.55669  0.12386  1.0000
  H   H46       1.0  0.42987  0.49685  0.53003  1.0000
  Mg  Mg11      1.0  0.49603  0.57226  0.96382  1.0000
  C   C105      1.0  0.57873  0.47161  0.85955  1.0000
  C   C106      1.0  0.56601  0.44645  0.76876  1.0000
  C  Sn23      1.0  0.53808  0.43668  0.70873  1.0000
  C  Sn24      1.0  0.52267  0.45245  0.74033  1.0000
  C   C107      1.0  0.53560  0.47761  0.83118  1.0000
  C   C108      1.0  0.56355  0.48718  0.89072  1.0000
  H   H47       1.0  0.60037  0.47903  0.90554  1.0000
  O  Te23      1.0  0.52568  0.41149  0.61829  1.0000
  O  Te24      1.0  0.49474  0.44318  0.68173  1.0000
  H   H48       1.0  0.57341  0.50667  0.96092  1.0000
  Mg  Mg12      1.0  0.48708  0.40757  0.56459  1.0000
  C   C109      1.0  0.40741  0.75426  0.41572  1.0000
  C   C110      1.0  0.38157  0.73648  0.33763  1.0000
  C  Sn25      1.0  0.36877  0.74993  0.24380  1.0000
  C  Sn26      1.0  0.38215  0.78177  0.22805  1.0000
  C   C111      1.0  0.40802  0.79936  0.30657  1.0000
  C   C112      1.0  0.42063  0.78567  0.40020  1.0000
  H   H49       1.0  0.41719  0.74367  0.48810  1.0000
  O  Te25      1.0  0.34295  0.73183  0.16664  1.0000
  O  Te26      1.0  0.36983  0.79581  0.13497  1.0000
  H   H50       1.0  0.44065  0.79944  0.46057  1.0000
  Mg  Mg13      1.0  0.33451  0.76149  0.05322  1.0000
  C   C113      1.0  0.58939  0.23714  0.87401  1.0000
  C   C114      1.0  0.61798  0.25974  0.79949  1.0000
  C  Sn27      1.0  0.63508  0.25271  0.68823  1.0000
  C  Sn28      1.0  0.62327  0.22247  0.65110  1.0000
  C   C115      1.0  0.59464  0.20002  0.72622  1.0000
  C   C116      1.0  0.57772  0.20731  0.83741  1.0000
  H   H51       1.0  0.57629  0.24277  0.95998  1.0000
  O  Te27      1.0  0.66360  0.27557  0.61492  1.0000
  O  Te28      1.0  0.63988  0.21482  0.54030  1.0000
  H   H52       1.0  0.55558  0.18980  0.89501  1.0000
  Mg  Mg14      1.0  0.67762  0.25391  0.47208  1.0000
  C   C117      1.0  0.56077  0.08359  0.12238  1.0000
  C   C118      1.0  0.53663  0.06814  0.25011  1.0000
  C  Sn29      1.0  0.52539  0.08366  0.33818  1.0000
  C  Sn30      1.0  0.53860  0.11523  0.29731  1.0000
  C   C119      1.0  0.56273  0.13047  0.16923  1.0000
  C   C120      1.0  0.57381  0.11472  0.08194  1.0000
  H   H53       1.0  0.56934  0.07140  0.05477  1.0000
  O  Te29      1.0  0.50127  0.06788  0.46548  1.0000
  O  Te30      1.0  0.52780  0.13130  0.38328  1.0000
  H   H54       1.0  0.57222  0.10759  0.98298  1.0000
  Mg  Mg15      1.0  0.49451  0.09976  0.54670  1.0000
  C   C121      1.0  0.43749  0.91968  0.71811  1.0000
  C   C122      1.0  0.45960  0.93166  0.82884  1.0000
  C  Sn31      1.0  0.46847  0.91337  0.91229  1.0000
  C  Sn32      1.0  0.45491  0.88252  0.88406  1.0000
  C   C123      1.0  0.43282  0.87075  0.77294  1.0000
  C   C124      1.0  0.42411  0.88926  0.69014  1.0000
  H   H55       1.0  0.43076  0.93399  0.65396  1.0000
  O  Te31      1.0  0.51086  0.94479  0.02256  1.0000
  O  Te32      1.0  0.46335  0.86373  0.96576  1.0000
  H   H56       1.0  0.40700  0.87998  0.60432  1.0000
  Mg  Mg16      1.0  0.51476  0.91011  0.10427  1.0000
  C   C125      1.0  0.23724  0.60171  0.16633  1.0000
  C   C126      1.0  0.21660  0.60760  0.25259  1.0000
  C  Sn33      1.0  0.22674  0.63213  0.34810  1.0000
  C  Sn34      1.0  0.25813  0.65108  0.35715  1.0000
  C   C127      1.0  0.27860  0.64501  0.27029  1.0000
  C   C128      1.0  0.26821  0.62040  0.17513  1.0000
  H   H57       1.0  0.22920  0.58268  0.09262  1.0000
  O  Te33      1.0  0.20582  0.63768  0.43355  1.0000
  O  Te34      1.0  0.26888  0.67575  0.45163  1.0000
  H   H58       1.0  0.28419  0.61586  0.10827  1.0000
  Mg  Mg17      1.0  0.23152  0.67405  0.54580  1.0000
  C   C129      1.0  0.76856  0.40205  0.71655  1.0000
  C   C130      1.0  0.78431  0.39163  0.80721  1.0000
  C  Sn35      1.0  0.76943  0.36211  0.88655  1.0000
  C  Sn36      1.0  0.73821  0.34271  0.87465  1.0000
  C   C131      1.0  0.72266  0.35334  0.78356  1.0000
  C   C132      1.0  0.73777  0.38293  0.70469  1.0000
  H   H59       1.0  0.78025  0.42494  0.65545  1.0000
  O  Te35      1.0  0.78550  0.35207  0.97668  1.0000
  O  Te36      1.0  0.72278  0.31310  0.95268  1.0000
  H   H60       1.0  0.72557  0.39098  0.63442  1.0000
  Mg  Mg18      1.0  0.77478  0.32894  0.06113  1.0000
  C   C133      1.0  0.92044  0.45487  0.28173  1.0000
  C   C134      1.0  0.93941  0.47981  0.16433  1.0000
  C  Sn37      1.0  0.92883  0.49753  0.09269  1.0000
  C  Sn38      1.0  0.89868  0.49009  0.13973  1.0000
  C   C135      1.0  0.87988  0.46510  0.25738  1.0000
  C   C136      1.0  0.89070  0.44752  0.32825  1.0000
  H   H61       1.0  0.92881  0.44128  0.33664  1.0000
  O  Te37      1.0  0.92782  0.50327  0.97553  1.0000
  O  Te38      1.0  0.88752  0.50742  0.07013  1.0000
  H   H62       1.0  0.87601  0.42823  0.41923  1.0000
  Mg  Mg19      1.0  0.90217  0.51997  0.91571  1.0000
  C   C137      1.0  0.07554  0.54107  0.71739  1.0000
  C   C138      1.0  0.06119  0.51963  0.60490  1.0000
  C  Sn39      1.0  0.07633  0.50717  0.52166  1.0000
  C  Sn40      1.0  0.10638  0.51638  0.55188  1.0000
  C   C139      1.0  0.12052  0.53783  0.66475  1.0000
  C   C140      1.0  0.10517  0.55016  0.74733  1.0000
  H   H63       1.0  0.06366  0.55060  0.78137  1.0000
  O  Te39      1.0  0.06166  0.48579  0.40963  1.0000
  O  Te40      1.0  0.12202  0.50429  0.47043  1.0000
  H   H64       1.0  0.11628  0.56674  0.83450  1.0000
  Mg  Mg20      1.0  0.09241  0.47585  0.32905  1.0000
  C   C141      1.0  0.41338  0.63493  0.14662  1.0000
  C   C142      1.0  0.40376  0.60746  0.24254  1.0000
  C  Sn41      1.0  0.37568  0.59240  0.34049  1.0000
  C  Sn42      1.0  0.35693  0.60511  0.34215  1.0000
  C   C143      1.0  0.36676  0.63259  0.24565  1.0000
  C   C144      1.0  0.39490  0.64748  0.14813  1.0000
  H   H65       1.0  0.43515  0.64644  0.07108  1.0000
  O  Te41      1.0  0.36642  0.56498  0.43563  1.0000
  O  Te42      1.0  0.32876  0.59053  0.43887  1.0000
  H   H66       1.0  0.40234  0.66873  0.07378  1.0000
  Mg  Mg21      1.0  0.32612  0.55367  0.54730  1.0000
  C   C145      1.0  0.59033  0.36696  0.69004  1.0000
  C   C146      1.0  0.59996  0.39428  0.75875  1.0000
  C  Sn43      1.0  0.62776  0.40888  0.82369  1.0000
  C  Sn44      1.0  0.64623  0.39584  0.81954  1.0000
  C   C147      1.0  0.63640  0.36852  0.75042  1.0000
  C   C148      1.0  0.60853  0.35410  0.68583  1.0000
  H   H67       1.0  0.56878  0.35581  0.63998  1.0000
  O  Te43      1.0  0.63703  0.43615  0.89194  1.0000
  O  Te44      1.0  0.67413  0.40996  0.88352  1.0000
  H   H68       1.0  0.60109  0.33296  0.63254  1.0000
  Mg  Mg22      1.0  0.67689  0.44678  0.96359  1.0000
  C   C149      1.0  0.56457  0.45955  0.31122  1.0000
  C   C150      1.0  0.55423  0.42990  0.27578  1.0000
  C  Sn45      1.0  0.52781  0.41421  0.19862  1.0000
  C  Sn46      1.0  0.51149  0.42852  0.15625  1.0000
  C   C151      1.0  0.52204  0.45820  0.19212  1.0000
  C   C152      1.0  0.54850  0.47369  0.26942  1.0000
  H   H69       1.0  0.58505  0.47155  0.37094  1.0000
  O  Te45      1.0  0.51779  0.38459  0.16416  1.0000
  O  Te46      1.0  0.48502  0.41336  0.07900  1.0000
  H   H70       1.0  0.55651  0.49666  0.29674  1.0000
  Mg  Mg23      1.0  0.48048  0.37330  0.05755  1.0000
  C   C153      1.0  0.44348  0.53184  0.82613  1.0000
  C   C154      1.0  0.47008  0.53972  0.72458  1.0000
  C  Sn47      1.0  0.48687  0.56815  0.63199  1.0000
  C  Sn48      1.0  0.47680  0.58904  0.64153  1.0000
  C   C155      1.0  0.45017  0.58094  0.74359  1.0000
  C   C156      1.0  0.43353  0.55243  0.83567  1.0000
  H   H71       1.0  0.43061  0.50978  0.89745  1.0000
  O  Te47      1.0  0.51339  0.57565  0.53110  1.0000
  O  Te48      1.0  0.49315  0.61761  0.55037  1.0000
  H   H72       1.0  0.41294  0.54634  0.91437  1.0000
  Mg  Mg24      1.0  0.52786  0.61731  0.43058  1.0000
