data_image0
_chemical_formula_structural       H72C132N12SnCSn2CSnTe4Mg2SnCSn2CSnTe4Mg2SnCSn2CSnTe4Mg2SnCSn2CSnTe4Mg2SnCSn2CSnTe4Mg2SnCSn2CSnTe4Mg2SnCSn2CSnTe4Mg2SnCSn2CSnTe4Mg2SnCSn2CSnTe4Mg2SnCSn2CSnTe4Mg2SnCSn2CSnTe4Mg2SnCSn2CSnTe4Mg2
_chemical_formula_sum              "H72 C156 N12 Sn48 Te48 Mg24"
_cell_length_a       51.6817
_cell_length_b       51.6506
_cell_length_c       7.96421
_cell_angle_alpha    86.7145
_cell_angle_beta     86.0512
_cell_angle_gamma    120.39

_symmetry_space_group_name_H-M    'P1'
_space_group_IT_number       1

loop_
  _space_group_symop_operation_xyz
  'x, y, z'

loop_
  _atom_site_type_symbol
  _atom_site_label
  _atom_site_symmetry_multiplicity
  _atom_site_fract_x
  _atom_site_fract_y
  _atom_site_fract_z
  _atom_site_occupancy
  H   H1        1.0  0.38407  0.83078  0.31470  1.0000
  H   H2        1.0  0.61372  0.16761  0.62080  1.0000
  H   H3        1.0  0.70067  0.30939  0.25568  1.0000
  H   H4        1.0  0.29733  0.68945  0.77162  1.0000
  H   H5        1.0  0.60081  0.26885  0.38707  1.0000
  H   H6        1.0  0.56991  0.21332  0.38954  1.0000
  H   H7        1.0  0.64339  0.21367  0.09894  1.0000
  H   H8        1.0  0.67413  0.26883  0.09676  1.0000
  H   H9        1.0  0.46409  0.88285  0.41597  1.0000
  H   H10       1.0  0.53536  0.11303  0.84466  1.0000
  H   H11       1.0  0.49267  0.93821  0.32361  1.0000
  H   H12       1.0  0.50659  0.05855  0.79515  1.0000
  H   H13       1.0  0.41567  0.92983  0.10118  1.0000
  H   H14       1.0  0.58164  0.07185  0.45553  1.0000
  H   H15       1.0  0.38615  0.87544  0.20748  1.0000
  H   H16       1.0  0.61096  0.12563  0.51326  1.0000
  H   H17       1.0  0.17515  0.57149  0.08193  1.0000
  H   H18       1.0  0.83346  0.43185  0.63455  1.0000
  H   H19       1.0  0.70214  0.39323  0.26039  1.0000
  H   H20       1.0  0.29539  0.60516  0.77676  1.0000
  H   H21       1.0  0.44044  0.59513  0.06329  1.0000
  H   H22       1.0  0.56296  0.40568  0.60428  1.0000
  H   H23       1.0  0.61862  0.31081  0.23217  1.0000
  H   H24       1.0  0.37977  0.68781  0.77012  1.0000
  H   H25       1.0  0.32441  0.59251  0.97089  1.0000
  H   H26       1.0  0.35361  0.56609  0.97525  1.0000
  H   H27       1.0  0.41896  0.63242  0.58401  1.0000
  H   H28       1.0  0.39087  0.65904  0.58421  1.0000
  H   H29       1.0  0.59932  0.46914  0.87363  1.0000
  H   H30       1.0  0.57715  0.49966  0.97214  1.0000
  H   H31       1.0  0.50014  0.44837  0.70696  1.0000
  H   H32       1.0  0.52251  0.41865  0.60463  1.0000
  H   H33       1.0  0.60394  0.16960  0.04242  1.0000
  H   H34       1.0  0.39490  0.83723  0.65775  1.0000
  H   H35       1.0  0.31653  0.69952  0.30514  1.0000
  H   H36       1.0  0.68350  0.29765  0.78498  1.0000
  H   H37       1.0  0.40789  0.73352  0.46829  1.0000
  H   H38       1.0  0.43502  0.78897  0.48821  1.0000
  H   H39       1.0  0.37602  0.79726  0.16361  1.0000
  H   H40       1.0  0.34902  0.74271  0.14517  1.0000
  H   H41       1.0  0.83892  0.46080  0.22733  1.0000
  H   H42       1.0  0.16342  0.54775  0.59973  1.0000
  H   H43       1.0  0.31233  0.61556  0.23906  1.0000
  H   H44       1.0  0.69062  0.38421  0.76358  1.0000
  H   H45       1.0  0.72149  0.31915  0.92973  1.0000
  H   H46       1.0  0.77636  0.34456  0.95638  1.0000
  H   H47       1.0  0.78954  0.42534  0.68401  1.0000
  H   H48       1.0  0.73542  0.40015  0.65470  1.0000
  H   H49       1.0  0.88435  0.42749  0.39135  1.0000
  H   H50       1.0  0.10786  0.56749  0.81163  1.0000
  H   H51       1.0  0.93939  0.44978  0.29583  1.0000
  H   H52       1.0  0.05454  0.54296  0.74432  1.0000
  H   H53       1.0  0.93913  0.52032  0.98458  1.0000
  H   H54       1.0  0.07040  0.48737  0.42103  1.0000
  H   H55       1.0  0.88547  0.50068  0.09771  1.0000
  H   H56       1.0  0.12280  0.51003  0.49827  1.0000
  H   H57       1.0  0.55300  0.38309  0.21230  1.0000
  H   H58       1.0  0.44450  0.61602  0.66996  1.0000
  H   H59       1.0  0.39769  0.69545  0.27528  1.0000
  H   H60       1.0  0.60387  0.30353  0.76746  1.0000
  H   H61       1.0  0.66831  0.40247  0.86721  1.0000
  H   H62       1.0  0.64523  0.43411  0.86879  1.0000
  H   H63       1.0  0.56824  0.36524  0.66167  1.0000
  H   H64       1.0  0.59152  0.33412  0.65263  1.0000
  H   H65       1.0  0.58514  0.46087  0.36488  1.0000
  H   H66       1.0  0.41318  0.53728  0.89868  1.0000
  H   H67       1.0  0.56068  0.49169  0.33051  1.0000
  H   H68       1.0  0.43985  0.50859  0.86809  1.0000
  H   H69       1.0  0.49013  0.42048  0.09460  1.0000
  H   H70       1.0  0.51132  0.58285  0.53665  1.0000
  H   H71       1.0  0.51302  0.38893  0.14255  1.0000
  H   H72       1.0  0.48603  0.61241  0.57876  1.0000
  C   C1        1.0  0.40832  0.84248  0.32911  1.0000
  C   C2        1.0  0.59044  0.15551  0.68353  1.0000
  C   C3        1.0  0.68883  0.32179  0.25127  1.0000
  C   C4        1.0  0.30920  0.67706  0.77206  1.0000
  C   C5        1.0  0.70499  0.35317  0.25740  1.0000
  C   C6        1.0  0.29263  0.64559  0.76967  1.0000
  C   C7        1.0  0.63965  0.27328  0.23830  1.0000
  C   C8        1.0  0.60986  0.25701  0.31865  1.0000
  C   C9        1.0  0.59250  0.22591  0.32174  1.0000
  C   C10       1.0  0.60384  0.20958  0.24106  1.0000
  C   C11       1.0  0.63374  0.22562  0.16080  1.0000
  C   C12       1.0  0.65120  0.25686  0.16060  1.0000
  C   C13       1.0  0.42383  0.87526  0.30943  1.0000
  C   C14       1.0  0.57433  0.12313  0.67491  1.0000
  C   C15       1.0  0.45346  0.89345  0.35063  1.0000
  C   C16       1.0  0.54530  0.10362  0.76136  1.0000
  C   C17       1.0  0.46932  0.92420  0.29887  1.0000
  C   C18       1.0  0.52941  0.07342  0.73325  1.0000
  C   C19       1.0  0.45653  0.93689  0.19708  1.0000
  C   C20       1.0  0.54166  0.06233  0.61399  1.0000
  C   C21       1.0  0.42587  0.91972  0.17508  1.0000
  C   C22       1.0  0.57180  0.08082  0.54260  1.0000
  C   C23       1.0  0.40950  0.88912  0.23325  1.0000
  C   C24       1.0  0.58800  0.11091  0.57379  1.0000
  C   C25       1.0  0.47687  0.96571  0.08735  1.0000
  C   C26       1.0  0.52165  0.03345  0.54306  1.0000
  C   C27       1.0  0.49204  0.99190  0.17457  1.0000
  C   C28       1.0  0.50693  0.00710  0.66231  1.0000
  C   C29       1.0  0.16577  0.58043  0.17434  1.0000
  C   C30       1.0  0.83849  0.42172  0.74351  1.0000
  C   C31       1.0  0.68948  0.36895  0.25481  1.0000
  C   C32       1.0  0.30801  0.62961  0.77457  1.0000
  C   C33       1.0  0.65818  0.35399  0.24849  1.0000
  C   C34       1.0  0.33940  0.64462  0.77522  1.0000
  C   C35       1.0  0.03736  0.51736  0.31217  1.0000
  C   C36       1.0  0.96427  0.48157  0.85601  1.0000
  C   C37       1.0  0.01415  0.50867  0.20365  1.0000
  C   C38       1.0  0.98749  0.48905  0.72273  1.0000
  C   C39       1.0  0.43084  0.58084  0.18486  1.0000
  C   C40       1.0  0.57320  0.42097  0.70171  1.0000
  C   C41       1.0  0.64281  0.32277  0.23943  1.0000
  C   C42       1.0  0.35536  0.67612  0.77197  1.0000
  C   C43       1.0  0.65759  0.30630  0.24120  1.0000
  C   C44       1.0  0.34069  0.69277  0.77416  1.0000
  C   C45       1.0  0.35584  0.62809  0.77915  1.0000
  C   C46       1.0  0.34515  0.60127  0.88611  1.0000
  C   C47       1.0  0.36135  0.58640  0.88953  1.0000
  C   C48       1.0  0.38874  0.59769  0.78526  1.0000
  C   C49       1.0  0.39901  0.62411  0.67457  1.0000
  C   C50       1.0  0.38306  0.63914  0.67372  1.0000
  C   C51       1.0  0.56174  0.44093  0.74071  1.0000
  C   C52       1.0  0.57764  0.46487  0.83861  1.0000
  C   C53       1.0  0.56517  0.48155  0.89402  1.0000
  C   C54       1.0  0.53613  0.47429  0.85682  1.0000
  C   C55       1.0  0.52185  0.45292  0.74331  1.0000
  C   C56       1.0  0.53448  0.43626  0.68605  1.0000
  C   C57       1.0  0.48396  0.51709  0.46166  1.0000
  C   C58       1.0  0.51968  0.48625  0.95620  1.0000
  C   C59       1.0  0.49632  0.50270  0.36377  1.0000
  C   C60       1.0  0.50813  0.50129  0.85714  1.0000
  C   C61       1.0  0.58667  0.16112  0.15239  1.0000
  C   C62       1.0  0.41042  0.84109  0.75385  1.0000
  C   C63       1.0  0.32756  0.68647  0.29056  1.0000
  C   C64       1.0  0.67318  0.31147  0.77973  1.0000
  C   C65       1.0  0.31016  0.65565  0.27109  1.0000
  C   C66       1.0  0.69118  0.34287  0.77830  1.0000
  C   C67       1.0  0.37582  0.73385  0.30926  1.0000
  C   C68       1.0  0.40078  0.74747  0.40206  1.0000
  C   C69       1.0  0.41595  0.77844  0.41485  1.0000
  C   C70       1.0  0.40630  0.79670  0.33611  1.0000
  C   C71       1.0  0.38193  0.78323  0.23897  1.0000
  C   C72       1.0  0.36695  0.75245  0.22673  1.0000
  C   C73       1.0  0.51770  0.03528  0.37393  1.0000
  C   C74       1.0  0.48023  0.96359  0.91619  1.0000
  C   C75       1.0  0.50290  0.01039  0.27686  1.0000
  C   C76       1.0  0.49573  0.98851  0.78754  1.0000
  C   C77       1.0  0.84842  0.44673  0.26389  1.0000
  C   C78       1.0  0.15126  0.55709  0.66732  1.0000
  C   C79       1.0  0.32518  0.63951  0.25374  1.0000
  C   C80       1.0  0.67695  0.35982  0.76788  1.0000
  C   C81       1.0  0.35655  0.65341  0.25558  1.0000
  C   C82       1.0  0.64562  0.34637  0.76452  1.0000
  C   C83       1.0  0.72400  0.35758  0.78986  1.0000
  C   C84       1.0  0.73638  0.34220  0.87207  1.0000
  C   C85       1.0  0.76711  0.35629  0.88800  1.0000
  C   C86       1.0  0.78710  0.38634  0.81852  1.0000
  C   C87       1.0  0.77484  0.40192  0.73665  1.0000
  C   C88       1.0  0.74406  0.38776  0.72252  1.0000
  C   C89       1.0  0.88118  0.46191  0.24385  1.0000
  C   C90       1.0  0.11909  0.54106  0.65455  1.0000
  C   C91       1.0  0.89687  0.44842  0.30769  1.0000
  C   C92       1.0  0.09923  0.54938  0.73033  1.0000
  C   C93       1.0  0.92725  0.46059  0.25277  1.0000
  C   C94       1.0  0.06968  0.53590  0.69110  1.0000
  C   C95       1.0  0.94173  0.48508  0.12577  1.0000
  C   C96       1.0  0.05996  0.51517  0.56965  1.0000
  C   C97       1.0  0.92732  0.50072  0.07843  1.0000
  C   C98       1.0  0.07854  0.50440  0.50914  1.0000
  C   C99       1.0  0.89731  0.48952  0.14044  1.0000
  C   C100      1.0  0.10779  0.51719  0.55206  1.0000
  C   C101      1.0  0.96898  0.49008  0.01781  1.0000
  C   C102      1.0  0.03274  0.50835  0.48427  1.0000
  C   C103      1.0  0.99564  0.50109  0.10068  1.0000
  C   C104      1.0  0.00567  0.49612  0.59678  1.0000
  C   C105      1.0  0.56646  0.40604  0.24953  1.0000
  C   C106      1.0  0.43114  0.59280  0.73282  1.0000
  C   C107      1.0  0.37334  0.68441  0.27351  1.0000
  C   C108      1.0  0.62820  0.31471  0.76970  1.0000
  C   C109      1.0  0.35898  0.70119  0.29186  1.0000
  C   C110      1.0  0.64186  0.29713  0.77468  1.0000
  C   C111      1.0  0.63195  0.36559  0.75884  1.0000
  C   C112      1.0  0.64693  0.39446  0.81564  1.0000
  C   C113      1.0  0.63405  0.41236  0.81857  1.0000
  C   C114      1.0  0.60551  0.40247  0.76366  1.0000
  C   C115      1.0  0.59038  0.37373  0.70497  1.0000
  C   C116      1.0  0.60350  0.35589  0.70217  1.0000
  C   C117      1.0  0.55134  0.42337  0.25025  1.0000
  C   C118      1.0  0.44708  0.57622  0.73406  1.0000
  C   C119      1.0  0.56404  0.45208  0.30890  1.0000
  C   C120      1.0  0.43484  0.54723  0.82128  1.0000
  C   C121      1.0  0.55040  0.46919  0.28913  1.0000
  C   C122      1.0  0.44980  0.53130  0.80410  1.0000
  C   C123      1.0  0.52476  0.45875  0.20162  1.0000
  C   C124      1.0  0.47640  0.54315  0.69184  1.0000
  C   C125      1.0  0.51042  0.42902  0.15819  1.0000
  C   C126      1.0  0.49021  0.57317  0.61893  1.0000
  C   C127      1.0  0.52349  0.41147  0.18356  1.0000
  C   C128      1.0  0.47577  0.58953  0.64086  1.0000
  C   C129      1.0  0.51582  0.48018  0.13042  1.0000
  C   C130      1.0  0.48720  0.52305  0.62844  1.0000
  C   C131      1.0  0.50467  0.49294  0.24858  1.0000
  C   C132      1.0  0.49917  0.51101  0.74516  1.0000
  N   N1        1.0  0.83170  0.41799  0.30683  1.0000
  N   N2        1.0  0.16484  0.58102  0.74507  1.0000
  N   N3        1.0  0.59386  0.41713  0.28597  1.0000
  N   N4        1.0  0.40340  0.58107  0.79758  1.0000
  N   N5        1.0  0.58422  0.17834  0.25582  1.0000
  N   N6        1.0  0.41182  0.81943  0.83400  1.0000
  N   N7        1.0  0.18205  0.60059  0.27092  1.0000
  N   N8        1.0  0.81764  0.39867  0.84214  1.0000
  N   N9        1.0  0.41030  0.58077  0.28710  1.0000
  N   N10       1.0  0.59435  0.42184  0.78321  1.0000
  N   N11       1.0  0.42227  0.82783  0.34930  1.0000
  N   N12       1.0  0.57819  0.16909  0.75629  1.0000
  C  Sn1       1.0  0.75644  0.36420  0.41956  1.0000
  C   C133      1.0  0.73952  0.37174  0.31968  1.0000
  C  Sn2       1.0  0.75384  0.39451  0.18472  1.0000
  C  Sn3       1.0  0.78572  0.41006  0.14877  1.0000
  C   C134      1.0  0.80261  0.40252  0.24861  1.0000
  C  Sn4       1.0  0.78832  0.37975  0.38361  1.0000
  O  Te1       1.0  0.74165  0.34135  0.55383  1.0000
  O  Te2       1.0  0.73645  0.40165  0.08669  1.0000
  O  Te3       1.0  0.80050  0.43292  0.01438  1.0000
  O  Te4       1.0  0.80568  0.37260  0.48159  1.0000
  Mg  Mg1       1.0  0.74673  0.41537  0.91740  1.0000
  Mg  Mg2       1.0  0.77517  0.33978  0.65085  1.0000
  C  Sn5       1.0  0.23280  0.63178  0.88056  1.0000
  C   C135      1.0  0.25483  0.62602  0.81274  1.0000
  C  Sn6       1.0  0.24844  0.60610  0.68930  1.0000
  C  Sn7       1.0  0.21942  0.59164  0.63237  1.0000
  C   C136      1.0  0.19741  0.59740  0.70016  1.0000
  C  Sn8       1.0  0.20378  0.61732  0.82363  1.0000
  O  Te5       1.0  0.25996  0.67088  0.00383  1.0000
  O  Te6       1.0  0.27083  0.60070  0.62342  1.0000
  O  Te7       1.0  0.21254  0.57162  0.50900  1.0000
  O  Te8       1.0  0.18141  0.62272  0.88947  1.0000
  Mg  Mg3       1.0  0.25056  0.57161  0.45778  1.0000
  Mg  Mg4       1.0  0.22193  0.67091  0.05505  1.0000
  C  Sn9       1.0  0.64501  0.39611  0.38786  1.0000
  C   C137      1.0  0.63870  0.37050  0.30774  1.0000
  C  Sn10      1.0  0.61802  0.36066  0.18833  1.0000
  C  Sn11      1.0  0.60334  0.37676  0.14806  1.0000
  C   C138      1.0  0.60965  0.40236  0.22814  1.0000
  C  Sn12      1.0  0.63033  0.41222  0.34760  1.0000
  O  Te9       1.0  0.66577  0.40555  0.50684  1.0000
  O  Te10      1.0  0.61208  0.33498  0.10994  1.0000
  O  Te11      1.0  0.58257  0.36731  0.02899  1.0000
  O  Te12      1.0  0.63628  0.43788  0.42594  1.0000
  Mg  Mg5       1.0  0.56177  0.31195  0.95634  1.0000
  Mg  Mg6       1.0  0.66633  0.44185  0.57949  1.0000
  C  Sn13      1.0  0.36118  0.58708  0.31187  1.0000
  C   C139      1.0  0.38967  0.59454  0.23677  1.0000
  C  Sn14      1.0  0.41093  0.62437  0.17444  1.0000
  C  Sn15      1.0  0.40357  0.64722  0.18752  1.0000
  C   C140      1.0  0.37509  0.63975  0.26260  1.0000
  C  Sn16      1.0  0.35381  0.60993  0.32495  1.0000
  O  Te13      1.0  0.34028  0.55712  0.37333  1.0000
  O  Te14      1.0  0.43927  0.63127  0.09983  1.0000
  O  Te15      1.0  0.42450  0.67719  0.12597  1.0000
  O  Te16      1.0  0.32550  0.60302  0.39953  1.0000
  Mg  Mg7       1.0  0.46009  0.67536  0.03503  1.0000
  Mg  Mg8       1.0  0.30466  0.55895  0.46446  1.0000
  C  Sn17      1.0  0.09420  0.57477  0.26548  1.0000
  C   C141      1.0  0.07335  0.54810  0.20337  1.0000
  C  Sn18      1.0  0.08253  0.52924  0.13637  1.0000
  C  Sn19      1.0  0.11319  0.53719  0.13144  1.0000
  C   C142      1.0  0.13402  0.56384  0.19355  1.0000
  C  Sn20      1.0  0.12486  0.58272  0.26055  1.0000
  O  Te17      1.0  0.08452  0.59329  0.33191  1.0000
  O  Te18      1.0  0.06128  0.50270  0.07498  1.0000
  O  Te19      1.0  0.12286  0.51865  0.06493  1.0000
  O  Te20      1.0  0.14609  0.60924  0.32194  1.0000
  Mg  Mg9       1.0  0.06518  0.46576  0.99680  1.0000
  Mg  Mg10      1.0  0.12195  0.62709  0.40022  1.0000
  C  Sn21      1.0  0.57886  0.22076  0.82679  1.0000
  C   C143      1.0  0.58860  0.20457  0.73337  1.0000
  C  Sn22      1.0  0.61872  0.21810  0.66420  1.0000
  C  Sn23      1.0  0.63953  0.24844  0.68900  1.0000
  C   C144      1.0  0.62978  0.26462  0.78239  1.0000
  C  Sn24      1.0  0.59967  0.25111  0.85159  1.0000
  O  Te21      1.0  0.54865  0.20679  0.89479  1.0000
  O  Te22      1.0  0.62793  0.20145  0.57123  1.0000
  O  Te23      1.0  0.66976  0.26241  0.62090  1.0000
  O  Te24      1.0  0.59046  0.26774  0.94453  1.0000
  Mg  Mg11      1.0  0.67143  0.23041  0.50392  1.0000
  Mg  Mg12      1.0  0.56723  0.25789  0.01197  1.0000
  C  Sn25      1.0  0.25245  0.64510  0.40186  1.0000
  C   C145      1.0  0.27243  0.63764  0.32264  1.0000
  C  Sn26      1.0  0.26356  0.61837  0.19509  1.0000
  C  Sn27      1.0  0.23411  0.60631  0.14560  1.0000
  C   C146      1.0  0.21415  0.61377  0.22478  1.0000
  C  Sn28      1.0  0.22300  0.63304  0.35238  1.0000
  O  Te25      1.0  0.26181  0.66441  0.52906  1.0000
  O  Te26      1.0  0.28393  0.61123  0.11778  1.0000
  O  Te27      1.0  0.22476  0.58699  0.01829  1.0000
  O  Te28      1.0  0.20265  0.64018  0.42964  1.0000
  Mg  Mg13      1.0  0.24038  0.56487  0.95081  1.0000
  Mg  Mg14      1.0  0.22591  0.66746  0.59655  1.0000
  C  Sn29      1.0  0.53975  0.11140  0.35258  1.0000
  C   C147      1.0  0.56501  0.12656  0.23155  1.0000
  C  Sn30      1.0  0.57141  0.11066  0.11588  1.0000
  C  Sn31      1.0  0.55214  0.07896  0.12121  1.0000
  C   C148      1.0  0.52689  0.06382  0.24216  1.0000
  C  Sn32      1.0  0.52048  0.07969  0.35791  1.0000
  O  Te29      1.0  0.53379  0.12774  0.46697  1.0000
  O  Te30      1.0  0.57654  0.10722  0.99607  1.0000
  O  Te31      1.0  0.55812  0.06262  0.00669  1.0000
  O  Te32      1.0  0.49509  0.06406  0.47763  1.0000
  Mg  Mg15      1.0  0.57515  0.07496  0.86718  1.0000
  Mg  Mg16      1.0  0.49646  0.09630  0.60653  1.0000
  C  Sn33      1.0  0.48500  0.55916  0.22488  1.0000
  C   C149      1.0  0.47272  0.53645  0.36054  1.0000
  C  Sn34      1.0  0.44228  0.52285  0.42329  1.0000
  C  Sn35      1.0  0.42372  0.53212  0.34884  1.0000
  C   C150      1.0  0.43600  0.55482  0.21325  1.0000
  C  Sn36      1.0  0.46644  0.56844  0.15043  1.0000
  O  Te33      1.0  0.51549  0.57245  0.16420  1.0000
  O  Te34      1.0  0.43052  0.50020  0.55906  1.0000
  O  Te35      1.0  0.39321  0.51882  0.40965  1.0000
  O  Te36      1.0  0.47820  0.59107  0.01472  1.0000
  Mg  Mg17      1.0  0.38765  0.48892  0.59682  1.0000
  Mg  Mg18      1.0  0.50079  0.58326  0.97681  1.0000
  C  Sn37      1.0  0.88574  0.42791  0.93086  1.0000
  C   C151      1.0  0.87182  0.43750  0.81916  1.0000
  C  Sn38      1.0  0.88903  0.45984  0.68516  1.0000
  C  Sn39      1.0  0.92082  0.47285  0.66225  1.0000
  C   C152      1.0  0.93472  0.46326  0.77388  1.0000
  C  Sn40      1.0  0.91753  0.44092  0.90795  1.0000
  O  Te37      1.0  0.88836  0.42463  0.06394  1.0000
  O  Te38      1.0  0.87460  0.46906  0.57518  1.0000
  O  Te39      1.0  0.93846  0.49524  0.52904  1.0000
  O  Te40      1.0  0.95221  0.45079  0.01787  1.0000
  Mg  Mg19      1.0  0.90838  0.50024  0.41281  1.0000
  Mg  Mg20      1.0  0.91845  0.41960  0.18022  1.0000
  C  Sn41      1.0  0.43243  0.91775  0.77023  1.0000
  C   C153      1.0  0.45658  0.92978  0.86788  1.0000
  C  Sn42      1.0  0.47035  0.91343  0.91176  1.0000
  C  Sn43      1.0  0.45978  0.88444  0.85682  1.0000
  C   C154      1.0  0.43565  0.87242  0.75921  1.0000
  C  Sn44      1.0  0.42186  0.88876  0.71529  1.0000
  O  Te41      1.0  0.41900  0.93450  0.72784  1.0000
  O  Te42      1.0  0.51472  0.94502  0.00954  1.0000
  O  Te43      1.0  0.47323  0.86769  0.89930  1.0000
  O  Te44      1.0  0.39777  0.87628  0.61756  1.0000
  Mg  Mg21      1.0  0.52561  0.91346  0.03463  1.0000
  Mg  Mg22      1.0  0.38688  0.90782  0.59231  1.0000
  C  Sn45      1.0  0.35620  0.76886  0.77076  1.0000
  C   C155      1.0  0.38355  0.78506  0.83876  1.0000
  C  Sn46      1.0  0.40110  0.77207  0.86757  1.0000
  C  Sn47      1.0  0.39110  0.74228  0.82749  1.0000
  C   C156      1.0  0.36376  0.72610  0.75951  1.0000
  C  Sn48      1.0  0.34620  0.73907  0.73068  1.0000
  O  Te45      1.0  0.33902  0.78230  0.74300  1.0000
  O  Te46      1.0  0.42836  0.78871  0.93572  1.0000
  O  Te47      1.0  0.40830  0.72885  0.85532  1.0000
  O  Te48      1.0  0.31895  0.72245  0.66255  1.0000
  Mg  Mg23      1.0  0.44379  0.76061  0.95038  1.0000
  Mg  Mg24      1.0  0.30351  0.75053  0.64776  1.0000
