data_image0
_chemical_formula_structural       H60C112N16C2Sn2C2HTe2HMgC2Sn2C2HTe2HMgC2Sn2C2HTe2HMgC2Sn2C2HTe2HMgC2Sn2C2HTe2HMgC2Sn2C2HTe2HMgC2Sn2C2HTe2HMgC2Sn2C2HTe2HMg
_chemical_formula_sum              "H76 C144 N16 Sn16 Te16 Mg8"
_cell_length_a       33.9828
_cell_length_b       33.9514
_cell_length_c       8.08138
_cell_angle_alpha    90.3349
_cell_angle_beta     90.3908
_cell_angle_gamma    90.7266

_symmetry_space_group_name_H-M    'P1'
_space_group_IT_number       1

loop_
  _space_group_symop_operation_xyz
  'x, y, z'

loop_
  _atom_site_type_symbol
  _atom_site_label
  _atom_site_symmetry_multiplicity
  _atom_site_fract_x
  _atom_site_fract_y
  _atom_site_fract_z
  _atom_site_occupancy
  H   H1        1.0  0.46147  0.92759  0.35077  1.0000
  H   H2        1.0  0.45519  0.85788  0.43823  1.0000
  H   H3        1.0  0.54803  0.82587  0.10698  1.0000
  H   H4        1.0  0.55529  0.89620  0.02279  1.0000
  H   H5        1.0  0.47451  0.78781  0.41167  1.0000
  H   H6        1.0  0.51502  0.21425  0.91848  1.0000
  H   H7        1.0  0.56640  0.36588  0.11957  1.0000
  H   H8        1.0  0.43115  0.63544  0.63912  1.0000
  H   H9        1.0  0.62517  0.41935  0.12862  1.0000
  H   H10       1.0  0.37283  0.58153  0.64730  1.0000
  H   H11       1.0  0.36224  0.42701  0.35461  1.0000
  H   H12       1.0  0.63676  0.57237  0.85471  1.0000
  H   H13       1.0  0.41552  0.36918  0.34189  1.0000
  H   H14       1.0  0.58330  0.62987  0.85882  1.0000
  H   H15       1.0  0.47245  0.47740  0.22684  1.0000
  H   H16       1.0  0.52569  0.52324  0.72054  1.0000
  H   H17       1.0  0.55649  0.64742  0.10346  1.0000
  H   H18       1.0  0.44045  0.35389  0.59987  1.0000
  H   H19       1.0  0.55906  0.72063  0.09441  1.0000
  H   H20       1.0  0.43547  0.28087  0.58595  1.0000
  H   H21       1.0  0.45306  0.72537  0.38091  1.0000
  H   H22       1.0  0.54326  0.27241  0.86321  1.0000
  H   H23       1.0  0.45144  0.65285  0.39402  1.0000
  H   H24       1.0  0.54738  0.34487  0.88201  1.0000
  H   H25       1.0  0.64936  0.44414  0.40736  1.0000
  H   H26       1.0  0.72274  0.44692  0.40980  1.0000
  H   H27       1.0  0.71988  0.54649  0.08375  1.0000
  H   H28       1.0  0.64779  0.54404  0.08544  1.0000
  H   H29       1.0  0.92806  0.53468  0.65489  1.0000
  H   H30       1.0  0.85843  0.53653  0.55976  1.0000
  H   H31       1.0  0.82855  0.44375  0.89838  1.0000
  H   H32       1.0  0.89877  0.44157  0.99157  1.0000
  H   H33       1.0  0.21004  0.49083  0.08589  1.0000
  H   H34       1.0  0.78884  0.51148  0.57631  1.0000
  H   H35       1.0  0.54815  0.22186  0.36897  1.0000
  H   H36       1.0  0.45463  0.77936  0.77815  1.0000
  H   H37       1.0  0.42889  0.63196  0.12225  1.0000
  H   H38       1.0  0.57036  0.36687  0.62186  1.0000
  H   H39       1.0  0.37013  0.57896  0.12951  1.0000
  H   H40       1.0  0.62840  0.42039  0.62068  1.0000
  H   H41       1.0  0.63256  0.56983  0.36820  1.0000
  H   H42       1.0  0.36868  0.43175  0.88645  1.0000
  H   H43       1.0  0.57940  0.62766  0.36978  1.0000
  H   H44       1.0  0.42105  0.37323  0.87868  1.0000
  H   H45       1.0  0.52160  0.52084  0.23212  1.0000
  H   H46       1.0  0.47831  0.47856  0.72952  1.0000
  H   H47       1.0  0.55880  0.65004  0.58355  1.0000
  H   H48       1.0  0.56111  0.72301  0.56990  1.0000
  H   H49       1.0  0.46251  0.72773  0.89990  1.0000
  H   H50       1.0  0.45985  0.65569  0.90889  1.0000
  H   H51       1.0  0.64585  0.44113  0.89810  1.0000
  H   H52       1.0  0.71862  0.43475  0.91220  1.0000
  H   H53       1.0  0.73165  0.54078  0.62895  1.0000
  H   H54       1.0  0.65942  0.54587  0.60804  1.0000
  H   H55       1.0  0.08909  0.43154  0.51183  1.0000
  H   H56       1.0  0.16150  0.42635  0.54572  1.0000
  H   H57       1.0  0.16210  0.52819  0.86551  1.0000
  H   H58       1.0  0.08903  0.53233  0.83584  1.0000
  H   H59       1.0  0.77748  0.54868  0.13490  1.0000
  H   H60       1.0  0.22182  0.45643  0.60829  1.0000
  C   C1        1.0  0.50648  0.98833  0.19483  1.0000
  C   C2        1.0  0.49908  0.01150  0.69573  1.0000
  C   C3        1.0  0.50382  0.95482  0.08744  1.0000
  C   C4        1.0  0.50087  0.04476  0.58859  1.0000
  C   C5        1.0  0.50664  0.91589  0.17130  1.0000
  C   C6        1.0  0.48032  0.90529  0.29681  1.0000
  C   C7        1.0  0.47687  0.86605  0.34574  1.0000
  C   C8        1.0  0.49999  0.83680  0.27136  1.0000
  C   C9        1.0  0.52935  0.84848  0.15892  1.0000
  C   C10       1.0  0.53303  0.88749  0.11167  1.0000
  C   C11       1.0  0.49398  0.79504  0.30766  1.0000
  C   C12       1.0  0.49882  0.20559  0.80530  1.0000
  C   C13       1.0  0.56490  0.39642  0.15736  1.0000
  C   C14       1.0  0.43317  0.60478  0.67323  1.0000
  C   C15       1.0  0.59473  0.42354  0.16191  1.0000
  C   C16       1.0  0.40359  0.57736  0.67688  1.0000
  C   C17       1.0  0.57761  0.46017  0.21949  1.0000
  C   C18       1.0  0.42147  0.54066  0.72925  1.0000
  C   C19       1.0  0.52970  0.41666  0.21319  1.0000
  C   C20       1.0  0.46896  0.58465  0.72343  1.0000
  C   C21       1.0  0.39287  0.42962  0.32062  1.0000
  C   C22       1.0  0.60591  0.56975  0.82290  1.0000
  C   C23       1.0  0.42023  0.40004  0.31475  1.0000
  C   C24       1.0  0.57862  0.59937  0.82411  1.0000
  C   C25       1.0  0.45716  0.41700  0.26620  1.0000
  C   C26       1.0  0.54156  0.58306  0.77186  1.0000
  C   C27       1.0  0.41191  0.46576  0.27454  1.0000
  C   C28       1.0  0.58659  0.53407  0.77048  1.0000
  C   C29       1.0  0.49297  0.39740  0.23928  1.0000
  C   C30       1.0  0.50609  0.60350  0.74621  1.0000
  C   C31       1.0  0.39504  0.50319  0.25244  1.0000
  C   C32       1.0  0.60356  0.49678  0.74396  1.0000
  C   C33       1.0  0.50393  0.64447  0.25132  1.0000
  C   C34       1.0  0.49426  0.35515  0.74289  1.0000
  C   C35       1.0  0.64308  0.49439  0.24826  1.0000
  C   C36       1.0  0.53464  0.66446  0.16921  1.0000
  C   C37       1.0  0.46238  0.33610  0.66180  1.0000
  C   C38       1.0  0.53620  0.70528  0.16335  1.0000
  C   C39       1.0  0.45949  0.29533  0.65306  1.0000
  C   C40       1.0  0.50718  0.72834  0.23947  1.0000
  C   C41       1.0  0.48818  0.27137  0.72647  1.0000
  C   C42       1.0  0.47615  0.70866  0.32112  1.0000
  C   C43       1.0  0.52037  0.29006  0.80665  1.0000
  C   C44       1.0  0.47491  0.66772  0.32724  1.0000
  C   C45       1.0  0.52300  0.33096  0.81541  1.0000
  C   C46       1.0  0.66490  0.46626  0.33547  1.0000
  C   C47       1.0  0.70585  0.46772  0.33729  1.0000
  C   C48       1.0  0.72683  0.49712  0.25191  1.0000
  C   C49       1.0  0.70509  0.52451  0.15919  1.0000
  C   C50       1.0  0.66428  0.52313  0.15881  1.0000
  C   C51       1.0  0.00913  0.50457  0.32585  1.0000
  C   C52       1.0  0.98960  0.49339  0.82462  1.0000
  C   C53       1.0  0.04317  0.50273  0.42986  1.0000
  C   C54       1.0  0.95559  0.49565  0.92667  1.0000
  C   C55       1.0  0.91727  0.48992  0.83754  1.0000
  C   C56       1.0  0.90628  0.51474  0.70771  1.0000
  C   C57       1.0  0.86717  0.51562  0.65420  1.0000
  C   C58       1.0  0.83849  0.49133  0.72869  1.0000
  C   C59       1.0  0.85063  0.46348  0.84637  1.0000
  C   C60       1.0  0.88954  0.46251  0.89840  1.0000
  C   C61       1.0  0.20214  0.50539  0.20304  1.0000
  C   C62       1.0  0.79664  0.49567  0.69029  1.0000
  C   C63       1.0  0.50768  0.01198  0.30996  1.0000
  C   C64       1.0  0.49814  0.98804  0.81049  1.0000
  C   C65       1.0  0.50850  0.04483  0.42049  1.0000
  C   C66       1.0  0.49679  0.95503  0.91872  1.0000
  C   C67       1.0  0.52392  0.20842  0.29646  1.0000
  C   C68       1.0  0.48323  0.79295  0.74782  1.0000
  C   C69       1.0  0.43036  0.60170  0.16238  1.0000
  C   C70       1.0  0.56855  0.39753  0.65767  1.0000
  C   C71       1.0  0.40051  0.57461  0.16460  1.0000
  C   C72       1.0  0.59820  0.42485  0.65718  1.0000
  C   C73       1.0  0.41746  0.53804  0.22360  1.0000
  C   C74       1.0  0.58129  0.46168  0.71489  1.0000
  C   C75       1.0  0.46528  0.58174  0.22211  1.0000
  C   C76       1.0  0.53370  0.41764  0.71620  1.0000
  C   C77       1.0  0.60170  0.56752  0.33549  1.0000
  C   C78       1.0  0.39895  0.43346  0.84658  1.0000
  C   C79       1.0  0.57439  0.59712  0.33663  1.0000
  C   C80       1.0  0.42586  0.40352  0.84288  1.0000
  C   C81       1.0  0.53727  0.58077  0.28442  1.0000
  C   C82       1.0  0.46232  0.41925  0.78350  1.0000
  C   C83       1.0  0.58228  0.53196  0.28251  1.0000
  C   C84       1.0  0.41792  0.46860  0.78898  1.0000
  C   C85       1.0  0.50186  0.60093  0.25353  1.0000
  C   C86       1.0  0.49721  0.39866  0.74834  1.0000
  C   C87       1.0  0.59954  0.49509  0.25069  1.0000
  C   C88       1.0  0.40021  0.50534  0.75866  1.0000
  C   C89       1.0  0.50829  0.64706  0.74223  1.0000
  C   C90       1.0  0.64694  0.49383  0.75105  1.0000
  C   C91       1.0  0.53753  0.66717  0.65183  1.0000
  C   C92       1.0  0.53896  0.70807  0.64400  1.0000
  C   C93       1.0  0.51081  0.73087  0.72645  1.0000
  C   C94       1.0  0.48246  0.71104  0.82282  1.0000
  C   C95       1.0  0.48118  0.67023  0.82968  1.0000
  C   C96       1.0  0.66467  0.46227  0.83509  1.0000
  C   C97       1.0  0.70525  0.45864  0.84363  1.0000
  C   C98       1.0  0.73034  0.48654  0.76856  1.0000
  C   C99       1.0  0.71301  0.51859  0.68678  1.0000
  C   C100      1.0  0.67227  0.52180  0.67717  1.0000
  C   C101      1.0  0.98568  0.50500  0.20969  1.0000
  C   C102      1.0  0.01321  0.49291  0.71055  1.0000
  C   C103      1.0  0.95398  0.50499  0.09356  1.0000
  C   C104      1.0  0.04498  0.49336  0.59652  1.0000
  C   C105      1.0  0.08491  0.48368  0.66331  1.0000
  C   C106      1.0  0.10517  0.45219  0.59122  1.0000
  C   C107      1.0  0.14573  0.44954  0.60990  1.0000
  C   C108      1.0  0.16694  0.47798  0.70303  1.0000
  C   C109      1.0  0.14580  0.50674  0.79078  1.0000
  C   C110      1.0  0.10512  0.50909  0.77356  1.0000
  C   C111      1.0  0.78978  0.52331  0.20077  1.0000
  C   C112      1.0  0.20974  0.47771  0.69677  1.0000
  N   N1        1.0  0.53780  0.45569  0.24379  1.0000
  N   N2        1.0  0.46135  0.54547  0.75115  1.0000
  N   N3        1.0  0.45084  0.45679  0.24659  1.0000
  N   N4        1.0  0.54758  0.54340  0.74450  1.0000
  N   N5        1.0  0.51154  0.76894  0.21850  1.0000
  N   N6        1.0  0.48326  0.23069  0.70513  1.0000
  N   N7        1.0  0.22808  0.51899  0.30733  1.0000
  N   N8        1.0  0.77073  0.48114  0.79025  1.0000
  N   N9        1.0  0.45717  0.54261  0.25114  1.0000
  N   N10       1.0  0.54175  0.45699  0.74331  1.0000
  N   N11       1.0  0.54325  0.54111  0.25843  1.0000
  N   N12       1.0  0.45648  0.45892  0.75844  1.0000
  N   N13       1.0  0.49697  0.22889  0.22436  1.0000
  N   N14       1.0  0.51370  0.77203  0.71359  1.0000
  N   N15       1.0  0.76802  0.49613  0.26659  1.0000
  N   N16       1.0  0.23181  0.50159  0.78299  1.0000
  C   C113      1.0  0.52098  0.89075  0.71272  1.0000
  C   C114      1.0  0.49289  0.91410  0.79019  1.0000
  C  Sn1       1.0  0.45925  0.89680  0.85856  1.0000
  C  Sn2       1.0  0.45373  0.85535  0.84904  1.0000
  C   C115      1.0  0.48202  0.83225  0.77137  1.0000
  C   C116      1.0  0.51556  0.84987  0.70333  1.0000
  H   H61       1.0  0.54694  0.90438  0.66015  1.0000
  O  Te1       1.0  0.43147  0.92055  0.93547  1.0000
  O  Te2       1.0  0.42039  0.83729  0.91639  1.0000
  H   H62       1.0  0.53732  0.83179  0.64345  1.0000
  Mg  Mg1       1.0  0.38924  0.88078  0.00861  1.0000
  C   C117      1.0  0.30332  0.53645  0.86286  1.0000
  C   C118      1.0  0.27768  0.51079  0.77808  1.0000
  C  Sn3       1.0  0.29251  0.48016  0.68167  1.0000
  C  Sn4       1.0  0.33380  0.47519  0.67018  1.0000
  C   C119      1.0  0.35920  0.50100  0.75556  1.0000
  C   C120      1.0  0.34404  0.53156  0.85165  1.0000
  H   H63       1.0  0.29159  0.56008  0.93728  1.0000
  O  Te3       1.0  0.26648  0.45481  0.59773  1.0000
  O  Te4       1.0  0.34942  0.44482  0.57474  1.0000
  H   H64       1.0  0.36390  0.55140  0.91735  1.0000
  Mg  Mg2       1.0  0.30198  0.41786  0.48334  1.0000
  C   C121      1.0  0.46235  0.11962  0.60520  1.0000
  C   C122      1.0  0.48769  0.08957  0.65279  1.0000
  C  Sn5       1.0  0.51675  0.09669  0.77276  1.0000
  C  Sn6       1.0  0.52044  0.13462  0.84627  1.0000
  C   C123      1.0  0.49492  0.16448  0.79789  1.0000
  C   C124      1.0  0.46595  0.15704  0.67768  1.0000
  H   H65       1.0  0.43992  0.11387  0.51226  1.0000
  O  Te5       1.0  0.54183  0.06633  0.81883  1.0000
  O  Te6       1.0  0.54921  0.14253  0.96652  1.0000
  H   H66       1.0  0.44632  0.18031  0.64094  1.0000
  Mg  Mg3       1.0  0.57642  0.09157  0.98801  1.0000
  C   C125      1.0  0.29380  0.47751  0.17534  1.0000
  C   C126      1.0  0.27191  0.50363  0.27089  1.0000
  C  Sn7       1.0  0.29077  0.53391  0.35977  1.0000
  C  Sn8       1.0  0.33232  0.53805  0.35257  1.0000
  C   C127      1.0  0.35396  0.51178  0.25652  1.0000
  C   C128      1.0  0.33479  0.48158  0.16812  1.0000
  H   H67       1.0  0.27898  0.45415  0.10687  1.0000
  O  Te7       1.0  0.26845  0.55974  0.45467  1.0000
  O  Te8       1.0  0.35192  0.56806  0.44011  1.0000
  H   H68       1.0  0.35174  0.46138  0.09406  1.0000
  Mg  Mg4       1.0  0.30862  0.59592  0.55205  1.0000
  C   C129      1.0  0.88484  0.55216  0.08026  1.0000
  C   C130      1.0  0.91069  0.52530  0.15131  1.0000
  C  Sn9       1.0  0.89634  0.49511  0.25193  1.0000
  C  Sn10      1.0  0.85534  0.49182  0.28172  1.0000
  C   C131      1.0  0.82971  0.51883  0.20997  1.0000
  C   C132      1.0  0.84439  0.54893  0.10952  1.0000
  H   H69       1.0  0.89619  0.57544  0.00247  1.0000
  O  Te9       1.0  0.92258  0.46853  0.32199  1.0000
  O  Te10      1.0  0.84020  0.46192  0.38174  1.0000
  H   H70       1.0  0.82436  0.56971  0.05445  1.0000
  Mg  Mg5       1.0  0.88776  0.43285  0.44942  1.0000
  C   C133      1.0  0.52897  0.30286  0.34230  1.0000
  C   C134      1.0  0.50315  0.27501  0.27190  1.0000
  C  Sn11      1.0  0.47148  0.28712  0.17439  1.0000
  C  Sn12      1.0  0.46563  0.32788  0.14704  1.0000
  C   C135      1.0  0.49164  0.35550  0.21792  1.0000
  C   C136      1.0  0.52323  0.34306  0.31533  1.0000
  H   H71       1.0  0.55343  0.29323  0.41759  1.0000
  O  Te11      1.0  0.44595  0.25892  0.10504  1.0000
  O  Te12      1.0  0.43422  0.34079  0.05005  1.0000
  H   H72       1.0  0.54323  0.36462  0.36972  1.0000
  Mg  Mg6       1.0  0.40907  0.29250  0.98220  1.0000
  C   C137      1.0  0.55617  0.11484  0.41402  1.0000
  C   C138      1.0  0.52618  0.08863  0.36536  1.0000
  C  Sn13      1.0  0.49520  0.10146  0.26563  1.0000
  C  Sn14      1.0  0.49431  0.14130  0.21382  1.0000
  C   C139      1.0  0.52447  0.16729  0.26307  1.0000
  C   C140      1.0  0.55532  0.15414  0.36292  1.0000
  H   H73       1.0  0.58006  0.10467  0.49120  1.0000
  O  Te13      1.0  0.46548  0.07488  0.21820  1.0000
  O  Te14      1.0  0.46371  0.15491  0.11407  1.0000
  H   H74       1.0  0.57855  0.17444  0.40049  1.0000
  Mg  Mg7       1.0  0.42999  0.10746  0.08176  1.0000
  C   C141      1.0  0.10018  0.48141  0.18128  1.0000
  C   C142      1.0  0.08317  0.50286  0.30977  1.0000
  C  Sn15      1.0  0.10552  0.53066  0.39879  1.0000
  C  Sn16      1.0  0.14564  0.53705  0.35810  1.0000
  C   C143      1.0  0.16237  0.51545  0.22926  1.0000
  C   C144      1.0  0.13974  0.48770  0.14102  1.0000
  H   H75       1.0  0.08266  0.45995  0.11293  1.0000
  O  Te15      1.0  0.08807  0.55183  0.52683  1.0000
  O  Te16      1.0  0.16865  0.56466  0.44502  1.0000
  H   H76       1.0  0.15291  0.47111  0.04148  1.0000
  Mg  Mg8       1.0  0.13155  0.58621  0.60922  1.0000
