data_image0
_chemical_formula_structural       H40C112N16SnCSn2CSnTe4Mg2SnCSn2CSnTe4Mg2SnCSn2CSnTe4Mg2SnCSn2CSnTe4Mg2SnCSn2CSnTe4Mg2SnCSn2CSnTe4Mg2SnCSn2CSnTe4Mg2SnCSn2CSnTe4Mg2SnCSn2CSnTe4Mg2SnCSn2CSnTe4Mg2SnCSn2CSnTe4Mg2SnCSn2CSnTe4Mg2SnCSn2CSnTe4Mg2SnCSn2CSnTe4Mg2SnCSn2CSnTe4Mg2SnCSn2CSnTe4Mg2SnCSn2CSnTe4Mg2SnCSn2CSnTe4Mg2SnCSn2CSnTe4Mg2SnCSn2CSnTe4Mg2SnCSn2CSnTe4Mg2SnCSn2CSnTe4Mg2SnCSn2CSnTe4Mg2SnCSn2CSnTe4Mg2SnCSn2CSnTe4Mg2SnCSn2CSnTe4Mg2SnCSn2CSnTe4Mg2SnCSn2CSnTe4Mg2SnCSn2CSnTe4Mg2SnCSn2CSnTe4Mg2SnCSn2CSnTe4Mg2SnCSn2CSnTe4Mg2
_chemical_formula_sum              "H40 C176 N16 Sn128 Te128 Mg64"
_cell_length_a       46.686
_cell_length_b       43.5384
_cell_length_c       7.92377
_cell_angle_alpha    90.535
_cell_angle_beta     94.3963
_cell_angle_gamma    89.7532

_symmetry_space_group_name_H-M    'P1'
_space_group_IT_number       1

loop_
  _space_group_symop_operation_xyz
  'x, y, z'

loop_
  _atom_site_type_symbol
  _atom_site_label
  _atom_site_symmetry_multiplicity
  _atom_site_fract_x
  _atom_site_fract_y
  _atom_site_fract_z
  _atom_site_occupancy
  H   H1        1.0  0.56399  0.97519  0.24485  1.0000
  H   H2        1.0  0.43941  0.97410  0.74425  1.0000
  H   H3        1.0  0.06294  0.47450  0.24905  1.0000
  H   H4        1.0  0.93775  0.47470  0.75261  1.0000
  H   H5        1.0  0.43869  0.03012  0.74750  1.0000
  H   H6        1.0  0.56342  0.03136  0.24712  1.0000
  H   H7        1.0  0.93836  0.53070  0.74899  1.0000
  H   H8        1.0  0.06364  0.53046  0.24416  1.0000
  H   H9        1.0  0.60472  0.16835  0.47294  1.0000
  H   H10       1.0  0.39579  0.16689  0.52797  1.0000
  H   H11       1.0  0.10539  0.66756  0.46470  1.0000
  H   H12       1.0  0.89776  0.66793  0.52284  1.0000
  H   H13       1.0  0.39645  0.83770  0.52522  1.0000
  H   H14       1.0  0.60611  0.83360  0.42007  1.0000
  H   H15       1.0  0.89423  0.33888  0.54367  1.0000
  H   H16       1.0  0.10302  0.33579  0.47072  1.0000
  H   H17       1.0  0.56261  0.96844  0.75084  1.0000
  H   H18       1.0  0.43836  0.96834  0.24719  1.0000
  H   H19       1.0  0.06204  0.46945  0.75409  1.0000
  H   H20       1.0  0.93754  0.46986  0.25256  1.0000
  H   H21       1.0  0.43828  0.02459  0.24844  1.0000
  H   H22       1.0  0.56314  0.02452  0.74693  1.0000
  H   H23       1.0  0.93820  0.52604  0.24960  1.0000
  H   H24       1.0  0.06297  0.52549  0.74810  1.0000
  H   H25       1.0  0.61005  0.15834  0.97898  1.0000
  H   H26       1.0  0.38930  0.15660  0.03114  1.0000
  H   H27       1.0  0.11085  0.65943  0.96997  1.0000
  H   H28       1.0  0.89125  0.65880  0.02361  1.0000
  H   H29       1.0  0.38785  0.83849  0.00726  1.0000
  H   H30       1.0  0.60784  0.83022  0.98400  1.0000
  H   H31       1.0  0.88671  0.33892  0.01879  1.0000
  H   H32       1.0  0.10918  0.33456  0.98857  1.0000
  H   H33       1.0  0.50189  0.89697  0.00228  1.0000
  H   H34       1.0  0.99882  0.39693  0.01017  1.0000
  H   H35       1.0  0.49989  0.10856  0.00492  1.0000
  H   H36       1.0  0.00142  0.60837  0.99527  1.0000
  H   H37       1.0  0.49930  0.89064  0.50446  1.0000
  H   H38       1.0  0.99841  0.39188  0.50945  1.0000
  H   H39       1.0  0.50012  0.10216  0.50395  1.0000
  H   H40       1.0  0.00128  0.60339  0.49656  1.0000
  C   C1        1.0  0.52607  0.93744  0.06867  1.0000
  C   C2        1.0  0.47697  0.93681  0.92849  1.0000
  C   C3        1.0  0.02405  0.43676  0.07671  1.0000
  C   C4        1.0  0.97500  0.43727  0.93590  1.0000
  C   C5        1.0  0.47602  0.06813  0.92914  1.0000
  C   C6        1.0  0.52465  0.06851  0.07449  1.0000
  C   C7        1.0  0.97673  0.56830  0.92381  1.0000
  C   C8        1.0  0.02546  0.56801  0.06806  1.0000
  C   C9        1.0  0.52529  0.97008  0.07760  1.0000
  C   C10       1.0  0.47741  0.96950  0.91785  1.0000
  C   C11       1.0  0.02404  0.46951  0.08273  1.0000
  C   C12       1.0  0.97607  0.46983  0.92347  1.0000
  C   C13       1.0  0.47684  0.03544  0.91932  1.0000
  C   C14       1.0  0.52460  0.03582  0.08036  1.0000
  C   C15       1.0  0.97690  0.53558  0.91807  1.0000
  C   C16       1.0  0.02480  0.53537  0.07760  1.0000
  C   C17       1.0  0.54719  0.98744  0.17027  1.0000
  C   C18       1.0  0.45561  0.98655  0.82299  1.0000
  C   C19       1.0  0.04632  0.48674  0.17308  1.0000
  C   C20       1.0  0.95443  0.48702  0.82823  1.0000
  C   C21       1.0  0.45528  0.01796  0.82420  1.0000
  C   C22       1.0  0.54685  0.01883  0.17181  1.0000
  C   C23       1.0  0.95480  0.51839  0.82594  1.0000
  C   C24       1.0  0.04672  0.51814  0.17046  1.0000
  C   C25       1.0  0.72296  0.22876  0.67332  1.0000
  C   C26       1.0  0.27736  0.22889  0.33757  1.0000
  C   C27       1.0  0.22229  0.73143  0.65281  1.0000
  C   C28       1.0  0.78066  0.73207  0.32895  1.0000
  C   C29       1.0  0.27879  0.77189  0.35630  1.0000
  C   C30       1.0  0.72409  0.77245  0.62980  1.0000
  C   C31       1.0  0.77840  0.27046  0.37497  1.0000
  C   C32       1.0  0.22035  0.26907  0.63810  1.0000
  C   C33       1.0  0.74357  0.24404  0.57884  1.0000
  C   C34       1.0  0.25656  0.24394  0.43404  1.0000
  C   C35       1.0  0.24302  0.74649  0.55825  1.0000
  C   C36       1.0  0.76051  0.74776  0.42659  1.0000
  C   C37       1.0  0.25884  0.75721  0.45785  1.0000
  C   C38       1.0  0.74496  0.75857  0.52957  1.0000
  C   C39       1.0  0.75890  0.25510  0.47671  1.0000
  C   C40       1.0  0.24057  0.25452  0.53545  1.0000
  C   C41       1.0  0.62372  0.16219  0.40593  1.0000
  C   C42       1.0  0.37689  0.16146  0.59668  1.0000
  C   C43       1.0  0.12425  0.66221  0.39440  1.0000
  C   C44       1.0  0.87870  0.66279  0.59080  1.0000
  C   C45       1.0  0.37774  0.84283  0.59719  1.0000
  C   C46       1.0  0.62581  0.84182  0.36777  1.0000
  C   C47       1.0  0.87538  0.34391  0.61464  1.0000
  C   C48       1.0  0.12176  0.34059  0.39925  1.0000
  C   C49       1.0  0.52401  0.93075  0.57574  1.0000
  C   C50       1.0  0.47588  0.93121  0.42801  1.0000
  C   C51       1.0  0.02336  0.43196  0.57854  1.0000
  C   C52       1.0  0.97492  0.43254  0.43442  1.0000
  C   C53       1.0  0.47591  0.06184  0.43274  1.0000
  C   C54       1.0  0.52492  0.06192  0.56983  1.0000
  C   C55       1.0  0.97648  0.56325  0.42889  1.0000
  C   C56       1.0  0.02540  0.56293  0.56678  1.0000
  C   C57       1.0  0.52412  0.96345  0.58110  1.0000
  C   C58       1.0  0.47670  0.96374  0.41772  1.0000
  C   C59       1.0  0.02350  0.46465  0.58446  1.0000
  C   C60       1.0  0.97591  0.46508  0.42279  1.0000
  C   C61       1.0  0.47669  0.02926  0.41938  1.0000
  C   C62       1.0  0.52457  0.02928  0.57824  1.0000
  C   C63       1.0  0.97671  0.53063  0.41945  1.0000
  C   C64       1.0  0.02456  0.53035  0.57822  1.0000
  C   C65       1.0  0.54617  0.98070  0.67366  1.0000
  C   C66       1.0  0.45488  0.98083  0.32318  1.0000
  C   C67       1.0  0.04567  0.48178  0.67666  1.0000
  C   C68       1.0  0.95423  0.48226  0.32765  1.0000
  C   C69       1.0  0.45483  0.01220  0.32426  1.0000
  C   C70       1.0  0.54646  0.01211  0.67168  1.0000
  C   C71       1.0  0.95459  0.51362  0.32628  1.0000
  C   C72       1.0  0.04622  0.51315  0.67319  1.0000
  C   C73       1.0  0.72422  0.22580  0.84742  1.0000
  C   C74       1.0  0.27578  0.22581  0.16303  1.0000
  C   C75       1.0  0.22369  0.72852  0.82694  1.0000
  C   C76       1.0  0.77829  0.72830  0.15504  1.0000
  C   C77       1.0  0.27599  0.77313  0.18141  1.0000
  C   C78       1.0  0.72510  0.77199  0.80458  1.0000
  C   C79       1.0  0.77572  0.27172  0.20015  1.0000
  C   C80       1.0  0.22290  0.27026  0.81317  1.0000
  C   C81       1.0  0.74315  0.24190  0.96724  1.0000
  C   C82       1.0  0.25657  0.24173  0.04461  1.0000
  C   C83       1.0  0.24286  0.74434  0.94691  1.0000
  C   C84       1.0  0.75895  0.74410  0.03720  1.0000
  C   C85       1.0  0.25647  0.75623  0.06832  1.0000
  C   C86       1.0  0.74503  0.75559  0.91649  1.0000
  C   C87       1.0  0.75660  0.25426  0.08767  1.0000
  C   C88       1.0  0.24267  0.25353  0.92480  1.0000
  C   C89       1.0  0.62761  0.15115  0.90283  1.0000
  C   C90       1.0  0.37166  0.14936  0.10538  1.0000
  C   C91       1.0  0.12838  0.65224  0.89356  1.0000
  C   C92       1.0  0.87347  0.65153  0.09675  1.0000
  C   C93       1.0  0.37058  0.84690  0.08222  1.0000
  C   C94       1.0  0.62540  0.83923  0.91417  1.0000
  C   C95       1.0  0.86965  0.34678  0.09686  1.0000
  C   C96       1.0  0.12658  0.34296  0.91548  1.0000
  C   C97       1.0  0.50116  0.98621  0.99838  1.0000
  C   C98       1.0  0.00026  0.48607  0.00189  1.0000
  C   C99       1.0  0.50086  0.01921  0.99937  1.0000
  C   C100      1.0  0.00066  0.51905  0.99919  1.0000
  C   C101      1.0  0.50158  0.92194  0.00043  1.0000
  C   C102      1.0  0.99924  0.42188  0.00800  1.0000
  C   C103      1.0  0.50014  0.08356  0.00331  1.0000
  C   C104      1.0  0.00122  0.58339  0.99561  1.0000
  C   C105      1.0  0.50058  0.97998  0.49847  1.0000
  C   C106      1.0  0.99999  0.48124  0.50206  1.0000
  C   C107      1.0  0.50068  0.01289  0.49813  1.0000
  C   C108      1.0  0.00046  0.51412  0.49955  1.0000
  C   C109      1.0  0.49968  0.91562  0.50288  1.0000
  C   C110      1.0  0.99885  0.41688  0.50788  1.0000
  C   C111      1.0  0.50032  0.07718  0.50229  1.0000
  C   C112      1.0  0.00106  0.57840  0.49727  1.0000
  N   N1        1.0  0.62350  0.14006  0.29547  1.0000
  N   N2        1.0  0.37709  0.13977  0.70759  1.0000
  N   N3        1.0  0.12422  0.64020  0.28317  1.0000
  N   N4        1.0  0.87854  0.64114  0.70179  1.0000
  N   N5        1.0  0.37811  0.86433  0.71170  1.0000
  N   N6        1.0  0.62614  0.86597  0.27345  1.0000
  N   N7        1.0  0.87537  0.36576  0.72695  1.0000
  N   N8        1.0  0.12166  0.36200  0.28655  1.0000
  N   N9        1.0  0.62503  0.13051  0.78391  1.0000
  N   N10       1.0  0.37431  0.12870  0.22220  1.0000
  N   N11       1.0  0.12588  0.63126  0.77650  1.0000
  N   N12       1.0  0.87587  0.63090  0.21372  1.0000
  N   N13       1.0  0.37377  0.86800  0.19808  1.0000
  N   N14       1.0  0.62254  0.86107  0.80462  1.0000
  N   N15       1.0  0.87300  0.36779  0.21315  1.0000
  N   N16       1.0  0.12355  0.36427  0.80256  1.0000
  C  Sn1       1.0  0.60083  0.91943  0.16138  1.0000
  C   C113      1.0  0.60146  0.89205  0.25227  1.0000
  C  Sn2       1.0  0.57611  0.87596  0.27154  1.0000
  C  Sn3       1.0  0.54958  0.88747  0.19837  1.0000
  C   C114      1.0  0.54896  0.91483  0.10752  1.0000
  C  Sn4       1.0  0.57429  0.93093  0.08820  1.0000
  O  Te1       1.0  0.62643  0.93513  0.14370  1.0000
  O  Te2       1.0  0.57728  0.84864  0.36301  1.0000
  O  Te3       1.0  0.52397  0.87174  0.21612  1.0000
  O  Te4       1.0  0.58614  0.95987  0.99678  1.0000
  Mg  Mg1       1.0  0.53662  0.83554  0.35200  1.0000
  Mg  Mg2       1.0  0.61378  0.97134  0.00764  1.0000
  C  Sn5       1.0  0.41771  0.92075  0.93315  1.0000
  C   C115      1.0  0.44677  0.91523  0.91335  1.0000
  C  Sn6       1.0  0.45501  0.89294  0.79849  1.0000
  C  Sn7       1.0  0.43375  0.87583  0.70132  1.0000
  C   C116      1.0  0.40470  0.88136  0.72112  1.0000
  C  Sn8       1.0  0.39645  0.90364  0.83598  1.0000
  O  Te5       1.0  0.39696  0.94150  0.04871  1.0000
  O  Te6       1.0  0.48420  0.88783  0.78095  1.0000
  O  Te7       1.0  0.44151  0.85343  0.58570  1.0000
  O  Te8       1.0  0.36727  0.90876  0.85352  1.0000
  Mg  Mg3       1.0  0.48400  0.85487  0.60699  1.0000
  Mg  Mg4       1.0  0.35444  0.94008  0.02737  1.0000
  C  Sn9       1.0  0.05010  0.38926  0.28332  1.0000
  C   C117      1.0  0.05029  0.41657  0.19211  1.0000
  C  Sn10      1.0  0.07415  0.42440  0.10565  1.0000
  C  Sn11      1.0  0.09833  0.40450  0.11037  1.0000
  C   C118      1.0  0.09814  0.37721  0.20151  1.0000
  C  Sn12      1.0  0.07429  0.36937  0.28804  1.0000
  O  Te9       1.0  0.02601  0.38190  0.36880  1.0000
  O  Te10      1.0  0.07384  0.45182  0.01537  1.0000
  O  Te11      1.0  0.12243  0.41189  0.02479  1.0000
  O  Te12      1.0  0.07459  0.34196  0.37825  1.0000
  Mg  Mg5       1.0  0.12476  0.45341  0.91933  1.0000
  Mg  Mg6       1.0  0.03668  0.34198  0.47426  1.0000
  C  Sn13      1.0  0.91586  0.42178  0.94686  1.0000
  C   C119      1.0  0.94474  0.41627  0.92151  1.0000
  C  Sn14      1.0  0.95232  0.39427  0.80330  1.0000
  C  Sn15      1.0  0.93058  0.37743  0.70838  1.0000
  C   C120      1.0  0.90173  0.38295  0.73373  1.0000
  C  Sn16      1.0  0.89413  0.40494  0.85194  1.0000
  O  Te13      1.0  0.89577  0.44225  0.06569  1.0000
  O  Te14      1.0  0.98133  0.38916  0.78022  1.0000
  O  Te15      1.0  0.93769  0.35531  0.58949  1.0000
  O  Te16      1.0  0.86513  0.41006  0.87502  1.0000
  Mg  Mg7       1.0  0.98018  0.35665  0.60347  1.0000
  Mg  Mg8       1.0  0.85325  0.44093  0.05166  1.0000
  C  Sn17      1.0  0.45108  0.12389  0.80410  1.0000
  C   C121      1.0  0.45124  0.09599  0.88994  1.0000
  C  Sn18      1.0  0.42587  0.07937  0.89809  1.0000
  C  Sn19      1.0  0.39979  0.09087  0.81871  1.0000
  C   C122      1.0  0.39964  0.11875  0.73291  1.0000
  C  Sn20      1.0  0.42501  0.13539  0.72472  1.0000
  O  Te17      1.0  0.47671  0.14012  0.79755  1.0000
  O  Te18      1.0  0.42656  0.05154  0.98469  1.0000
  O  Te19      1.0  0.37416  0.07461  0.82533  1.0000
  O  Te20      1.0  0.42432  0.16320  0.63816  1.0000
  Mg  Mg9       1.0  0.38607  0.03783  0.95828  1.0000
  Mg  Mg10      1.0  0.46480  0.17692  0.66441  1.0000
  C  Sn21      1.0  0.58499  0.07624  0.14690  1.0000
  C   C123      1.0  0.55601  0.08146  0.17072  1.0000
  C  Sn22      1.0  0.54681  0.11021  0.22522  1.0000
  C  Sn23      1.0  0.56699  0.13424  0.25647  1.0000
  C   C124      1.0  0.59594  0.12902  0.23263  1.0000
  C  Sn24      1.0  0.60517  0.10027  0.17815  1.0000
  O  Te21      1.0  0.59371  0.04732  0.09233  1.0000
  O  Te22      1.0  0.51773  0.11487  0.24819  1.0000
  O  Te23      1.0  0.55824  0.16318  0.31108  1.0000
  O  Te24      1.0  0.63422  0.09560  0.15515  1.0000
  Mg  Mg11      1.0  0.51634  0.15828  0.32399  1.0000
  Mg  Mg12      1.0  0.63564  0.05222  0.07928  1.0000
  C  Sn25      1.0  0.90461  0.59681  0.89937  1.0000
  C   C125      1.0  0.90448  0.62341  0.80198  1.0000
  C  Sn26      1.0  0.92846  0.63113  0.71629  1.0000
  C  Sn27      1.0  0.95308  0.61184  0.72809  1.0000
  C   C126      1.0  0.95320  0.58525  0.82540  1.0000
  C  Sn28      1.0  0.92923  0.57752  0.91116  1.0000
  O  Te25      1.0  0.88040  0.58955  0.98395  1.0000
  O  Te26      1.0  0.92783  0.65785  0.61976  1.0000
  O  Te27      1.0  0.97731  0.61912  0.64340  1.0000
  O  Te28      1.0  0.91685  0.54918  0.00762  1.0000
  Mg  Mg13      1.0  0.96608  0.65794  0.52776  1.0000
  Mg  Mg14      1.0  0.87861  0.54905  0.09959  1.0000
  C  Sn29      1.0  0.09754  0.59583  0.08517  1.0000
  C   C127      1.0  0.09803  0.62245  0.18526  1.0000
  C  Sn30      1.0  0.07445  0.63032  0.27531  1.0000
  C  Sn31      1.0  0.04986  0.61118  0.26520  1.0000
  C   C128      1.0  0.04938  0.58457  0.16519  1.0000
  C  Sn32      1.0  0.07295  0.57668  0.07507  1.0000
  O  Te29      1.0  0.13436  0.59004  0.99624  1.0000
  O  Te30      1.0  0.07545  0.65706  0.37448  1.0000
  O  Te31      1.0  0.02604  0.61863  0.35424  1.0000
  O  Te32      1.0  0.08497  0.55161  0.97597  1.0000
  Mg  Mg15      1.0  0.03766  0.65739  0.47217  1.0000
  Mg  Mg16      1.0  0.12274  0.55124  0.87830  1.0000
  C  Sn33      1.0  0.66514  0.21511  0.65274  1.0000
  C   C129      1.0  0.69342  0.21196  0.60865  1.0000
  C  Sn34      1.0  0.69953  0.19470  0.46624  1.0000
  C  Sn35      1.0  0.67690  0.18030  0.36572  1.0000
  C   C130      1.0  0.64863  0.18345  0.40981  1.0000
  C  Sn36      1.0  0.64250  0.20070  0.55223  1.0000
  O  Te33      1.0  0.65952  0.23247  0.79565  1.0000
  O  Te34      1.0  0.72799  0.19188  0.42473  1.0000
  O  Te35      1.0  0.68254  0.16292  0.22273  1.0000
  O  Te36      1.0  0.61407  0.20353  0.59373  1.0000
  Mg  Mg17      1.0  0.72476  0.16584  0.21801  1.0000
  Mg  Mg18      1.0  0.61727  0.22958  0.80036  1.0000
  C  Sn37      1.0  0.33525  0.21455  0.35351  1.0000
  C   C131      1.0  0.30702  0.21162  0.39814  1.0000
  C  Sn38      1.0  0.30103  0.19441  0.53904  1.0000
  C  Sn39      1.0  0.32374  0.17984  0.63747  1.0000
  C   C132      1.0  0.35196  0.18278  0.59285  1.0000
  C  Sn40      1.0  0.35797  0.19998  0.45194  1.0000
  O  Te37      1.0  0.34074  0.23187  0.21214  1.0000
  O  Te38      1.0  0.27263  0.19180  0.58112  1.0000
  O  Te39      1.0  0.31823  0.16251  0.77892  1.0000
  O  Te40      1.0  0.38635  0.20259  0.40986  1.0000
  Mg  Mg19      1.0  0.27602  0.16575  0.78519  1.0000
  Mg  Mg20      1.0  0.38298  0.22865  0.20588  1.0000
  C  Sn41      1.0  0.18408  0.67326  0.41911  1.0000
  C   C133      1.0  0.15552  0.67683  0.45743  1.0000
  C  Sn42      1.0  0.14640  0.70409  0.53101  1.0000
  C  Sn43      1.0  0.16622  0.72831  0.56694  1.0000
  C   C134      1.0  0.19476  0.72474  0.52860  1.0000
  C  Sn44      1.0  0.20390  0.69748  0.45504  1.0000
  O  Te41      1.0  0.19273  0.64581  0.34557  1.0000
  O  Te42      1.0  0.11774  0.70712  0.56823  1.0000
  O  Te43      1.0  0.15755  0.75578  0.64054  1.0000
  O  Te44      1.0  0.23254  0.69445  0.41780  1.0000
  Mg  Mg21      1.0  0.11628  0.74892  0.66778  1.0000
  Mg  Mg22      1.0  0.23402  0.65266  0.31818  1.0000
  C  Sn45      1.0  0.85503  0.71779  0.45579  1.0000
  C   C135      1.0  0.85555  0.69279  0.56529  1.0000
  C  Sn46      1.0  0.83004  0.67826  0.59956  1.0000
  C  Sn47      1.0  0.80346  0.68893  0.52271  1.0000
  C   C136      1.0  0.80295  0.71392  0.41327  1.0000
  C  Sn48      1.0  0.82845  0.72847  0.37894  1.0000
  O  Te45      1.0  0.88079  0.73197  0.42335  1.0000
  O  Te46      1.0  0.83111  0.65330  0.70950  1.0000
  O  Te47      1.0  0.77769  0.67474  0.55525  1.0000
  O  Te48      1.0  0.82739  0.75340  0.26905  1.0000
  Mg  Mg23      1.0  0.79024  0.64160  0.71386  1.0000
  Mg  Mg24      1.0  0.86825  0.76511  0.26453  1.0000
  C  Sn49      1.0  0.34988  0.79824  0.39015  1.0000
  C   C137      1.0  0.35105  0.82340  0.50127  1.0000
  C  Sn50      1.0  0.32884  0.82883  0.60641  1.0000
  C  Sn51      1.0  0.30498  0.80869  0.60045  1.0000
  C   C138      1.0  0.30383  0.78355  0.48941  1.0000
  C  Sn52      1.0  0.32602  0.77810  0.38419  1.0000
  O  Te49      1.0  0.37233  0.79325  0.28621  1.0000
  O  Te50      1.0  0.33048  0.85414  0.71641  1.0000
  O  Te51      1.0  0.28253  0.81370  0.70452  1.0000
  O  Te52      1.0  0.32440  0.75281  0.27426  1.0000
  Mg  Mg25      1.0  0.29459  0.85126  0.83308  1.0000
  Mg  Mg26      1.0  0.36028  0.75565  0.15761  1.0000
  C  Sn53      1.0  0.66369  0.77608  0.52202  1.0000
  C   C139      1.0  0.69257  0.78059  0.49445  1.0000
  C  Sn54      1.0  0.70167  0.80855  0.43243  1.0000
  C  Sn55      1.0  0.68147  0.83252  0.39733  1.0000
  C   C140      1.0  0.65261  0.82800  0.42493  1.0000
  C  Sn56      1.0  0.64349  0.80005  0.48692  1.0000
  O  Te53      1.0  0.65508  0.74794  0.58410  1.0000
  O  Te54      1.0  0.73065  0.81251  0.40583  1.0000
  O  Te55      1.0  0.69011  0.86067  0.33521  1.0000
  O  Te56      1.0  0.61452  0.79608  0.51355  1.0000
  Mg  Mg27      1.0  0.73191  0.85499  0.31977  1.0000
  Mg  Mg28      1.0  0.61324  0.75362  0.59968  1.0000
  C  Sn57      1.0  0.80222  0.32101  0.56021  1.0000
  C   C141      1.0  0.80198  0.29499  0.45545  1.0000
  C  Sn58      1.0  0.82770  0.28057  0.42089  1.0000
  C  Sn59      1.0  0.85421  0.29238  0.49261  1.0000
  C   C142      1.0  0.85444  0.31838  0.59732  1.0000
  C  Sn60      1.0  0.82874  0.33282  0.63193  1.0000
  O  Te57      1.0  0.77626  0.33505  0.59304  1.0000
  O  Te58      1.0  0.82691  0.25460  0.31573  1.0000
  O  Te59      1.0  0.88019  0.27831  0.45968  1.0000
  O  Te60      1.0  0.82951  0.35877  0.73704  1.0000
  Mg  Mg29      1.0  0.86798  0.24353  0.30874  1.0000
  Mg  Mg30      1.0  0.78846  0.36985  0.74418  1.0000
  C  Sn61      1.0  0.19536  0.31878  0.45488  1.0000
  C   C143      1.0  0.19609  0.29285  0.55777  1.0000
  C  Sn62      1.0  0.17065  0.27810  0.59124  1.0000
  C  Sn63      1.0  0.14392  0.28949  0.52032  1.0000
  C   C144      1.0  0.14320  0.31541  0.41747  1.0000
  C  Sn64      1.0  0.16863  0.33017  0.38395  1.0000
  O  Te61      1.0  0.22106  0.33316  0.42310  1.0000
  O  Te62      1.0  0.17193  0.25222  0.69453  1.0000
  O  Te63      1.0  0.11822  0.27509  0.55218  1.0000
  O  Te64      1.0  0.16736  0.35603  0.28071  1.0000
  Mg  Mg31      1.0  0.13107  0.24059  0.70064  1.0000
  Mg  Mg32      1.0  0.20821  0.36767  0.27444  1.0000
  C  Sn65      1.0  0.56189  0.86472  0.74104  1.0000
  C   C145      1.0  0.59090  0.86991  0.71946  1.0000
  C  Sn66      1.0  0.59999  0.89857  0.66708  1.0000
  C  Sn67      1.0  0.57968  0.92256  0.63571  1.0000
  C   C146      1.0  0.55069  0.91736  0.65733  1.0000
  C  Sn68      1.0  0.54157  0.88870  0.70968  1.0000
  O  Te65      1.0  0.55328  0.83588  0.79351  1.0000
  O  Te66      1.0  0.62910  0.90321  0.64632  1.0000
  O  Te67      1.0  0.58831  0.95141  0.58321  1.0000
  O  Te68      1.0  0.51248  0.88405  0.73047  1.0000
  Mg  Mg33      1.0  0.63031  0.94650  0.57288  1.0000
  Mg  Mg34      1.0  0.51125  0.84079  0.80398  1.0000
  C  Sn69      1.0  0.44687  0.88842  0.20229  1.0000
  C   C147      1.0  0.44903  0.91373  0.31224  1.0000
  C  Sn70      1.0  0.42616  0.92177  0.40780  1.0000
  C  Sn71      1.0  0.40061  0.90413  0.39324  1.0000
  C   C148      1.0  0.39846  0.87883  0.28337  1.0000
  C  Sn72      1.0  0.42132  0.87078  0.18773  1.0000
  O  Te69      1.0  0.47000  0.88081  0.10799  1.0000
  O  Te70      1.0  0.42882  0.94717  0.51683  1.0000
  O  Te71      1.0  0.37747  0.91176  0.48766  1.0000
  O  Te72      1.0  0.41867  0.84539  0.07878  1.0000
  Mg  Mg35      1.0  0.39141  0.94837  0.61877  1.0000
  Mg  Mg36      1.0  0.46907  0.84581  0.97685  1.0000
  C  Sn73      1.0  0.06269  0.36681  0.74495  1.0000
  C   C149      1.0  0.09145  0.37232  0.71810  1.0000
  C  Sn74      1.0  0.09988  0.40089  0.66065  1.0000
  C  Sn75      1.0  0.07913  0.42445  0.62948  1.0000
  C   C150      1.0  0.05039  0.41895  0.65636  1.0000
  C  Sn76      1.0  0.04194  0.39038  0.71378  1.0000
  O  Te73      1.0  0.05475  0.33808  0.80243  1.0000
  O  Te74      1.0  0.12875  0.40584  0.63468  1.0000
  O  Te75      1.0  0.08709  0.45320  0.57195  1.0000
  O  Te76      1.0  0.01309  0.38542  0.73978  1.0000
  Mg  Mg37      1.0  0.12901  0.44884  0.55557  1.0000
  Mg  Mg38      1.0  0.01281  0.34245  0.81896  1.0000
  C  Sn77      1.0  0.94600  0.38871  0.21480  1.0000
  C   C151      1.0  0.94797  0.41458  0.32074  1.0000
  C  Sn78      1.0  0.92498  0.42305  0.41435  1.0000
  C  Sn79      1.0  0.89950  0.40528  0.40191  1.0000
  C   C152      1.0  0.89755  0.37942  0.29606  1.0000
  C  Sn80      1.0  0.92053  0.37094  0.20237  1.0000
  O  Te77      1.0  0.96925  0.38067  0.12239  1.0000
  O  Te78      1.0  0.92745  0.44901  0.51936  1.0000
  O  Te79      1.0  0.87625  0.41334  0.49444  1.0000
  O  Te80      1.0  0.91807  0.34499  0.09744  1.0000
  Mg  Mg39      1.0  0.88994  0.45064  0.62005  1.0000
  Mg  Mg40      1.0  0.96857  0.34497  0.99677  1.0000
  C  Sn81      1.0  0.44902  0.11724  0.31168  1.0000
  C   C153      1.0  0.45057  0.09006  0.40441  1.0000
  C  Sn82      1.0  0.42590  0.07268  0.42143  1.0000
  C  Sn83      1.0  0.39911  0.08266  0.34406  1.0000
  C   C154      1.0  0.39756  0.10982  0.25137  1.0000
  C  Sn84      1.0  0.42223  0.12722  0.23431  1.0000
  O  Te81      1.0  0.47396  0.13426  0.29632  1.0000
  O  Te82      1.0  0.42799  0.04559  0.51481  1.0000
  O  Te83      1.0  0.37416  0.06561  0.35950  1.0000
  O  Te84      1.0  0.42014  0.15429  0.14097  1.0000
  Mg  Mg41      1.0  0.38798  0.03033  0.49936  1.0000
  Mg  Mg42      1.0  0.46014  0.16956  0.15627  1.0000
  C  Sn85      1.0  0.55055  0.11787  0.69444  1.0000
  C   C155      1.0  0.54956  0.09048  0.60088  1.0000
  C  Sn86      1.0  0.57461  0.07350  0.58276  1.0000
  C  Sn87      1.0  0.60121  0.08411  0.65984  1.0000
  C   C156      1.0  0.60219  0.11148  0.75336  1.0000
  C  Sn88      1.0  0.57715  0.12848  0.77153  1.0000
  O  Te85      1.0  0.52524  0.13448  0.71090  1.0000
  O  Te86      1.0  0.57308  0.04618  0.48857  1.0000
  O  Te87      1.0  0.62653  0.06748  0.64330  1.0000
  O  Te88      1.0  0.57867  0.15578  0.86567  1.0000
  Mg  Mg43      1.0  0.61343  0.03167  0.50264  1.0000
  Mg  Mg44      1.0  0.53833  0.17030  0.85176  1.0000
  C  Sn89      1.0  0.93467  0.61812  0.18633  1.0000
  C   C157      1.0  0.90610  0.61313  0.21956  1.0000
  C  Sn90      1.0  0.89950  0.59325  0.34829  1.0000
  C  Sn91      1.0  0.92193  0.57806  0.44593  1.0000
  C   C158      1.0  0.95048  0.58306  0.41271  1.0000
  C  Sn92      1.0  0.95709  0.60293  0.28397  1.0000
  O  Te89      1.0  0.94077  0.63809  0.05703  1.0000
  O  Te90      1.0  0.87077  0.58862  0.37911  1.0000
  O  Te91      1.0  0.91580  0.55807  0.57531  1.0000
  O  Te92      1.0  0.98580  0.60757  0.25316  1.0000
  Mg  Mg45      1.0  0.87335  0.55926  0.56902  1.0000
  Mg  Mg46      1.0  0.98325  0.63693  0.06335  1.0000
  C  Sn93      1.0  0.05149  0.61882  0.68586  1.0000
  C   C159      1.0  0.05038  0.59092  0.59702  1.0000
  C  Sn94      1.0  0.07530  0.57349  0.58346  1.0000
  C  Sn95      1.0  0.10189  0.58416  0.66039  1.0000
  C   C160      1.0  0.10299  0.61204  0.74919  1.0000
  C  Sn96      1.0  0.07808  0.62949  0.76279  1.0000
  O  Te93      1.0  0.02631  0.63587  0.69781  1.0000
  O  Te94      1.0  0.07365  0.54567  0.49394  1.0000
  O  Te95      1.0  0.12708  0.56708  0.64837  1.0000
  O  Te96      1.0  0.07971  0.65729  0.85227  1.0000
  Mg  Mg47      1.0  0.11385  0.53067  0.51312  1.0000
  Mg  Mg48      1.0  0.03953  0.67230  0.83325  1.0000
  C  Sn97      1.0  0.67124  0.20557  0.98706  1.0000
  C   C161      1.0  0.66644  0.17604  0.92044  1.0000
  C  Sn98      1.0  0.68924  0.15856  0.86647  1.0000
  C  Sn99      1.0  0.71742  0.17085  0.87945  1.0000
  C   C162      1.0  0.72220  0.20035  0.94605  1.0000
  C  Sn100     1.0  0.68641  0.21621  0.00003  1.0000
  O  Te97      1.0  0.63512  0.22099  0.04024  1.0000
  O  Te98      1.0  0.68392  0.12911  0.80026  1.0000
  O  Te99      1.0  0.74053  0.15376  0.82619  1.0000
  O  Te100     1.0  0.69173  0.24565  0.06624  1.0000
  Mg  Mg49      1.0  0.72242  0.11478  0.74490  1.0000
  Mg  Mg50      1.0  0.65324  0.25999  0.12171  1.0000
  C  Sn101     1.0  0.32035  0.20551  0.94071  1.0000
  C   C163      1.0  0.28279  0.19839  0.02614  1.0000
  C  Sn102     1.0  0.28274  0.17519  0.14667  1.0000
  C  Sn103     1.0  0.30776  0.15708  0.18265  1.0000
  C   C164      1.0  0.33229  0.16256  0.09726  1.0000
  C  Sn104     1.0  0.34536  0.18740  0.97669  1.0000
  O  Te101     1.0  0.31992  0.22883  0.82072  1.0000
  O  Te102     1.0  0.25794  0.17014  0.23040  1.0000
  O  Te103     1.0  0.30817  0.13375  0.30275  1.0000
  O  Te104     1.0  0.37015  0.19246  0.89301  1.0000
  Mg  Mg51      1.0  0.26911  0.13570  0.38334  1.0000
  Mg  Mg52      1.0  0.35901  0.22690  0.74012  1.0000
  C  Sn105     1.0  0.16641  0.70777  0.05000  1.0000
  C   C165      1.0  0.20375  0.70346  0.96253  1.0000
  C  Sn106     1.0  0.20362  0.67974  0.84259  1.0000
  C  Sn107     1.0  0.17863  0.66158  0.80930  1.0000
  C   C166      1.0  0.15431  0.66754  0.89673  1.0000
  C  Sn108     1.0  0.14143  0.68962  0.01672  1.0000
  O  Te105     1.0  0.16703  0.73161  0.16936  1.0000
  O  Te106     1.0  0.22821  0.67422  0.75679  1.0000
  O  Te107     1.0  0.17803  0.63773  0.68984  1.0000
  O  Te108     1.0  0.11685  0.69514  0.10247  1.0000
  Mg  Mg53      1.0  0.21684  0.63916  0.60572  1.0000
  Mg  Mg54      1.0  0.12819  0.73020  0.25349  1.0000
  C  Sn109     1.0  0.82218  0.70750  0.93132  1.0000
  C   C167      1.0  0.78464  0.70030  0.01669  1.0000
  C  Sn110     1.0  0.78466  0.67711  0.13733  1.0000
  C  Sn111     1.0  0.80973  0.65911  0.17350  1.0000
  C   C168      1.0  0.83425  0.66467  0.08817  1.0000
  C  Sn112     1.0  0.84726  0.68950  0.96748  1.0000
  O  Te109     1.0  0.82168  0.73080  0.81120  1.0000
  O  Te110     1.0  0.75986  0.67198  0.22100  1.0000
  O  Te111     1.0  0.81021  0.63579  0.29372  1.0000
  O  Te112     1.0  0.87204  0.69463  0.88386  1.0000
  Mg  Mg55      1.0  0.77113  0.63760  0.37416  1.0000
  Mg  Mg56      1.0  0.86080  0.72902  0.73075  1.0000
  C  Sn113     1.0  0.29605  0.83454  0.11764  1.0000
  C   C169      1.0  0.29090  0.80457  0.05863  1.0000
  C  Sn114     1.0  0.31330  0.78662  0.00361  1.0000
  C  Sn115     1.0  0.34145  0.79888  0.00774  1.0000
  C   C170      1.0  0.34659  0.82883  0.06674  1.0000
  C  Sn116     1.0  0.32420  0.84679  0.12177  1.0000
  O  Te113     1.0  0.27333  0.85207  0.17203  1.0000
  O  Te114     1.0  0.32063  0.75837  0.94510  1.0000
  O  Te115     1.0  0.37718  0.78296  0.95328  1.0000
  O  Te116     1.0  0.32987  0.87667  0.18027  1.0000
  Mg  Mg57      1.0  0.35868  0.74350  0.88459  1.0000
  Mg  Mg58      1.0  0.29184  0.89156  0.24090  1.0000
  C  Sn117     1.0  0.67966  0.83412  0.81355  1.0000
  C   C171      1.0  0.65568  0.82453  0.89407  1.0000
  C  Sn118     1.0  0.65726  0.79849  0.99614  1.0000
  C  Sn119     1.0  0.67036  0.78007  0.01828  1.0000
  C   C172      1.0  0.70732  0.79130  0.93781  1.0000
  C  Sn120     1.0  0.70576  0.81733  0.83570  1.0000
  O  Te117     1.0  0.67759  0.86021  0.71211  1.0000
  O  Te118     1.0  0.62000  0.78771  0.07529  1.0000
  O  Te119     1.0  0.67241  0.75396  0.11982  1.0000
  O  Te120     1.0  0.73000  0.82648  0.75660  1.0000
  Mg  Mg59      1.0  0.63351  0.75065  0.20108  1.0000
  Mg  Mg60      1.0  0.71652  0.86355  0.63086  1.0000
  C  Sn121     1.0  0.81661  0.33706  0.21013  1.0000
  C   C173      1.0  0.84040  0.33031  0.11934  1.0000
  C  Sn122     1.0  0.83951  0.30588  0.00359  1.0000
  C  Sn123     1.0  0.82732  0.28945  0.97796  1.0000
  C   C174      1.0  0.79054  0.29457  0.06870  1.0000
  C  Sn124     1.0  0.79141  0.31900  0.18450  1.0000
  O  Te121     1.0  0.81797  0.36160  0.32518  1.0000
  O  Te122     1.0  0.87657  0.30121  0.91435  1.0000
  O  Te123     1.0  0.82598  0.26490  0.86279  1.0000
  O  Te124     1.0  0.76737  0.32531  0.27368  1.0000
  Mg  Mg61      1.0  0.86426  0.26538  0.77148  1.0000
  Mg  Mg62      1.0  0.77966  0.36114  0.41652  1.0000
  C  Sn125     1.0  0.16598  0.29705  0.06525  1.0000
  C   C175      1.0  0.15986  0.32658  0.00452  1.0000
  C  Sn126     1.0  0.18850  0.34057  0.87806  1.0000
  C  Sn127     1.0  0.21070  0.32303  0.81081  1.0000
  C   C176      1.0  0.21681  0.29352  0.87152  1.0000
  C  Sn128     1.0  0.20119  0.28116  0.99801  1.0000
  O  Te125     1.0  0.15008  0.28517  0.19172  1.0000
  O  Te126     1.0  0.18199  0.37014  0.81940  1.0000
  O  Te127     1.0  0.22661  0.33494  0.68425  1.0000
  O  Te128     1.0  0.19468  0.24996  0.05664  1.0000
  Mg  Mg63      1.0  0.20968  0.37628  0.64570  1.0000
  Mg  Mg64      1.0  0.16699  0.24380  0.23026  1.0000
