data_image0
_chemical_formula_structural       H72C132N12C2Sn2C2HTe2HMgC2Sn2C2HTe2HMgC2Sn2C2HTe2HMgC2Sn2C2HTe2HMgC2Sn2C2HTe2HMgC2Sn2C2HTe2HMgC2Sn2C2HTe2HMgC2Sn2C2HTe2HMgC2Sn2C2HTe2HMgC2Sn2C2HTe2HMgC2Sn2C2HTe2HMgC2Sn2C2HTe2HMg
_chemical_formula_sum              "H96 C180 N12 Sn24 Te24 Mg12"
_cell_length_a       51.6817
_cell_length_b       51.6506
_cell_length_c       7.96421
_cell_angle_alpha    86.7145
_cell_angle_beta     86.0512
_cell_angle_gamma    120.39

_symmetry_space_group_name_H-M    'P1'
_space_group_IT_number       1

loop_
  _space_group_symop_operation_xyz
  'x, y, z'

loop_
  _atom_site_type_symbol
  _atom_site_label
  _atom_site_symmetry_multiplicity
  _atom_site_fract_x
  _atom_site_fract_y
  _atom_site_fract_z
  _atom_site_occupancy
  H   H1        1.0  0.38407  0.83078  0.31470  1.0000
  H   H2        1.0  0.61372  0.16761  0.62080  1.0000
  H   H3        1.0  0.70067  0.30939  0.25568  1.0000
  H   H4        1.0  0.29733  0.68945  0.77162  1.0000
  H   H5        1.0  0.60081  0.26885  0.38707  1.0000
  H   H6        1.0  0.39326  0.72401  0.90929  1.0000
  H   H7        1.0  0.56991  0.21332  0.38954  1.0000
  H   H8        1.0  0.42322  0.77894  0.92985  1.0000
  H   H9        1.0  0.64339  0.21367  0.09894  1.0000
  H   H10       1.0  0.35773  0.79084  0.68624  1.0000
  H   H11       1.0  0.67413  0.26883  0.09676  1.0000
  H   H12       1.0  0.32834  0.73649  0.66115  1.0000
  H   H13       1.0  0.53536  0.11303  0.84466  1.0000
  H   H14       1.0  0.50659  0.05855  0.79515  1.0000
  H   H15       1.0  0.58164  0.07185  0.45553  1.0000
  H   H16       1.0  0.61096  0.12563  0.51326  1.0000
  H   H17       1.0  0.17515  0.57149  0.08193  1.0000
  H   H18       1.0  0.83346  0.43185  0.63455  1.0000
  H   H19       1.0  0.70214  0.39323  0.26039  1.0000
  H   H20       1.0  0.29539  0.60516  0.77676  1.0000
  H   H21       1.0  0.73733  0.33648  0.44623  1.0000
  H   H22       1.0  0.79264  0.36549  0.46270  1.0000
  H   H23       1.0  0.80108  0.43597  0.10676  1.0000
  H   H24       1.0  0.74651  0.40710  0.08911  1.0000
  H   H25       1.0  0.44044  0.59513  0.06329  1.0000
  H   H26       1.0  0.56296  0.40568  0.60428  1.0000
  H   H27       1.0  0.61862  0.31081  0.23217  1.0000
  H   H28       1.0  0.37977  0.68781  0.77012  1.0000
  H   H29       1.0  0.32441  0.59251  0.97089  1.0000
  H   H30       1.0  0.35361  0.56609  0.97525  1.0000
  H   H31       1.0  0.41896  0.63242  0.58401  1.0000
  H   H32       1.0  0.39087  0.65904  0.58421  1.0000
  H   H33       1.0  0.40475  0.53449  0.42372  1.0000
  H   H34       1.0  0.59932  0.46914  0.87363  1.0000
  H   H35       1.0  0.42637  0.50413  0.53647  1.0000
  H   H36       1.0  0.57715  0.49966  0.97214  1.0000
  H   H37       1.0  0.50292  0.55184  0.15854  1.0000
  H   H38       1.0  0.50014  0.44837  0.70696  1.0000
  H   H39       1.0  0.48082  0.58125  0.04147  1.0000
  H   H40       1.0  0.52251  0.41865  0.60463  1.0000
  H   H41       1.0  0.60394  0.16960  0.04242  1.0000
  H   H42       1.0  0.39490  0.83723  0.65775  1.0000
  H   H43       1.0  0.31653  0.69952  0.30514  1.0000
  H   H44       1.0  0.68350  0.29765  0.78498  1.0000
  H   H45       1.0  0.40789  0.73352  0.46829  1.0000
  H   H46       1.0  0.43502  0.78897  0.48821  1.0000
  H   H47       1.0  0.37602  0.79726  0.16361  1.0000
  H   H48       1.0  0.34902  0.74271  0.14517  1.0000
  H   H49       1.0  0.53411  0.13244  0.35201  1.0000
  H   H50       1.0  0.50257  0.07708  0.43961  1.0000
  H   H51       1.0  0.56059  0.06196  0.09777  1.0000
  H   H52       1.0  0.59159  0.11712  0.00852  1.0000
  H   H53       1.0  0.83892  0.46080  0.22733  1.0000
  H   H54       1.0  0.16342  0.54775  0.59973  1.0000
  H   H55       1.0  0.31233  0.61556  0.23906  1.0000
  H   H56       1.0  0.69062  0.38421  0.76358  1.0000
  H   H57       1.0  0.27176  0.67129  0.42522  1.0000
  H   H58       1.0  0.21652  0.64645  0.41883  1.0000
  H   H59       1.0  0.21872  0.58128  0.11420  1.0000
  H   H60       1.0  0.27327  0.60605  0.11797  1.0000
  H   H61       1.0  0.88435  0.42749  0.39135  1.0000
  H   H62       1.0  0.93939  0.44978  0.29583  1.0000
  H   H63       1.0  0.93913  0.52032  0.98458  1.0000
  H   H64       1.0  0.88547  0.50068  0.09771  1.0000
  H   H65       1.0  0.55300  0.38309  0.21230  1.0000
  H   H66       1.0  0.44450  0.61602  0.66996  1.0000
  H   H67       1.0  0.39769  0.69545  0.27528  1.0000
  H   H68       1.0  0.60387  0.30353  0.76746  1.0000
  H   H69       1.0  0.33441  0.59804  0.41238  1.0000
  H   H70       1.0  0.35896  0.56727  0.42439  1.0000
  H   H71       1.0  0.43568  0.63701  0.09846  1.0000
  H   H72       1.0  0.41137  0.66758  0.08774  1.0000
  C   C1        1.0  0.40832  0.84248  0.32911  1.0000
  C   C2        1.0  0.59044  0.15551  0.68353  1.0000
  C   C3        1.0  0.68883  0.32179  0.25127  1.0000
  C   C4        1.0  0.30920  0.67706  0.77206  1.0000
  C   C5        1.0  0.70499  0.35317  0.25740  1.0000
  C   C6        1.0  0.29263  0.64559  0.76967  1.0000
  C   C7        1.0  0.63965  0.27328  0.23830  1.0000
  C   C8        1.0  0.35850  0.72578  0.78191  1.0000
  C   C9        1.0  0.60986  0.25701  0.31865  1.0000
  C   C10       1.0  0.38584  0.73859  0.85451  1.0000
  C   C11       1.0  0.59250  0.22591  0.32174  1.0000
  C   C12       1.0  0.40269  0.76936  0.86797  1.0000
  C   C13       1.0  0.60384  0.20958  0.24106  1.0000
  C   C14       1.0  0.39329  0.78907  0.80726  1.0000
  C   C15       1.0  0.63374  0.22562  0.16080  1.0000
  C   C16       1.0  0.36594  0.77646  0.73381  1.0000
  C   C17       1.0  0.65120  0.25686  0.16060  1.0000
  C   C18       1.0  0.34907  0.74552  0.72118  1.0000
  C   C19       1.0  0.57433  0.12313  0.67491  1.0000
  C   C20       1.0  0.54530  0.10362  0.76136  1.0000
  C   C21       1.0  0.52941  0.07342  0.73325  1.0000
  C   C22       1.0  0.54166  0.06233  0.61399  1.0000
  C   C23       1.0  0.57180  0.08082  0.54260  1.0000
  C   C24       1.0  0.58800  0.11091  0.57379  1.0000
  C   C25       1.0  0.47687  0.96571  0.08735  1.0000
  C   C26       1.0  0.52165  0.03345  0.54306  1.0000
  C   C27       1.0  0.49204  0.99190  0.17457  1.0000
  C   C28       1.0  0.50693  0.00710  0.66231  1.0000
  C   C29       1.0  0.16577  0.58043  0.17434  1.0000
  C   C30       1.0  0.83849  0.42172  0.74351  1.0000
  C   C31       1.0  0.68948  0.36895  0.25481  1.0000
  C   C32       1.0  0.30801  0.62961  0.77457  1.0000
  C   C33       1.0  0.65818  0.35399  0.24849  1.0000
  C   C34       1.0  0.33940  0.64462  0.77522  1.0000
  C   C35       1.0  0.73779  0.36992  0.26877  1.0000
  C   C36       1.0  0.75135  0.35820  0.37090  1.0000
  C   C37       1.0  0.78226  0.37450  0.38219  1.0000
  C   C38       1.0  0.80067  0.40332  0.29285  1.0000
  C   C39       1.0  0.78720  0.41481  0.18706  1.0000
  C   C40       1.0  0.75637  0.39844  0.17615  1.0000
  C   C41       1.0  0.03736  0.51736  0.31217  1.0000
  C   C42       1.0  0.96427  0.48157  0.85601  1.0000
  C   C43       1.0  0.01415  0.50867  0.20365  1.0000
  C   C44       1.0  0.98749  0.48905  0.72273  1.0000
  C   C45       1.0  0.43084  0.58084  0.18486  1.0000
  C   C46       1.0  0.57320  0.42097  0.70171  1.0000
  C   C47       1.0  0.64281  0.32277  0.23943  1.0000
  C   C48       1.0  0.35536  0.67612  0.77197  1.0000
  C   C49       1.0  0.65759  0.30630  0.24120  1.0000
  C   C50       1.0  0.34069  0.69277  0.77416  1.0000
  C   C51       1.0  0.35584  0.62809  0.77915  1.0000
  C   C52       1.0  0.34515  0.60127  0.88611  1.0000
  C   C53       1.0  0.36135  0.58640  0.88953  1.0000
  C   C54       1.0  0.38874  0.59769  0.78526  1.0000
  C   C55       1.0  0.39901  0.62411  0.67457  1.0000
  C   C56       1.0  0.38306  0.63914  0.67372  1.0000
  C   C57       1.0  0.44216  0.56095  0.23297  1.0000
  C   C58       1.0  0.56174  0.44093  0.74071  1.0000
  C   C59       1.0  0.42619  0.53797  0.36761  1.0000
  C   C60       1.0  0.57764  0.46487  0.83861  1.0000
  C   C61       1.0  0.43837  0.52146  0.43058  1.0000
  C   C62       1.0  0.56517  0.48155  0.89402  1.0000
  C   C63       1.0  0.46731  0.52816  0.36397  1.0000
  C   C64       1.0  0.53613  0.47429  0.85682  1.0000
  C   C65       1.0  0.48147  0.54819  0.21631  1.0000
  C   C66       1.0  0.52185  0.45292  0.74331  1.0000
  C   C67       1.0  0.46902  0.56459  0.15113  1.0000
  C   C68       1.0  0.53448  0.43626  0.68605  1.0000
  C   C69       1.0  0.48396  0.51709  0.46166  1.0000
  C   C70       1.0  0.51968  0.48625  0.95620  1.0000
  C   C71       1.0  0.49632  0.50270  0.36377  1.0000
  C   C72       1.0  0.50813  0.50129  0.85714  1.0000
  C   C73       1.0  0.58667  0.16112  0.15239  1.0000
  C   C74       1.0  0.41042  0.84109  0.75385  1.0000
  C   C75       1.0  0.32756  0.68647  0.29056  1.0000
  C   C76       1.0  0.67318  0.31147  0.77973  1.0000
  C   C77       1.0  0.31016  0.65565  0.27109  1.0000
  C   C78       1.0  0.69118  0.34287  0.77830  1.0000
  C   C79       1.0  0.37582  0.73385  0.30926  1.0000
  C   C80       1.0  0.40078  0.74747  0.40206  1.0000
  C   C81       1.0  0.41595  0.77844  0.41485  1.0000
  C   C82       1.0  0.40630  0.79670  0.33611  1.0000
  C   C83       1.0  0.38193  0.78323  0.23897  1.0000
  C   C84       1.0  0.36695  0.75245  0.22673  1.0000
  C   C85       1.0  0.56580  0.12854  0.18184  1.0000
  C   C86       1.0  0.53954  0.11674  0.29717  1.0000
  C   C87       1.0  0.52213  0.08597  0.34550  1.0000
  C   C88       1.0  0.53082  0.06617  0.28309  1.0000
  C   C89       1.0  0.55465  0.07733  0.15277  1.0000
  C   C90       1.0  0.57208  0.10833  0.10311  1.0000
  C   C91       1.0  0.51770  0.03528  0.37393  1.0000
  C   C92       1.0  0.48023  0.96359  0.91619  1.0000
  C   C93       1.0  0.50290  0.01039  0.27686  1.0000
  C   C94       1.0  0.49573  0.98851  0.78754  1.0000
  C   C95       1.0  0.84842  0.44673  0.26389  1.0000
  C   C96       1.0  0.15126  0.55709  0.66732  1.0000
  C   C97       1.0  0.32518  0.63951  0.25374  1.0000
  C   C98       1.0  0.67695  0.35982  0.76788  1.0000
  C   C99       1.0  0.35655  0.65341  0.25558  1.0000
  C   C100      1.0  0.64562  0.34637  0.76452  1.0000
  C   C101      1.0  0.27709  0.64083  0.27017  1.0000
  C   C102      1.0  0.26043  0.65203  0.35329  1.0000
  C   C103      1.0  0.22935  0.63811  0.35120  1.0000
  C   C104      1.0  0.21334  0.61245  0.26514  1.0000
  C   C105      1.0  0.22992  0.60094  0.18343  1.0000
  C   C106      1.0  0.26098  0.61483  0.18703  1.0000
  C   C107      1.0  0.88118  0.46191  0.24385  1.0000
  C   C108      1.0  0.89687  0.44842  0.30769  1.0000
  C   C109      1.0  0.92725  0.46059  0.25277  1.0000
  C   C110      1.0  0.94173  0.48508  0.12577  1.0000
  C   C111      1.0  0.92732  0.50072  0.07843  1.0000
  C   C112      1.0  0.89731  0.48952  0.14044  1.0000
  C   C113      1.0  0.96898  0.49008  0.01781  1.0000
  C   C114      1.0  0.03274  0.50835  0.48427  1.0000
  C   C115      1.0  0.99564  0.50109  0.10068  1.0000
  C   C116      1.0  0.00567  0.49612  0.59678  1.0000
  C   C117      1.0  0.56646  0.40604  0.24953  1.0000
  C   C118      1.0  0.43114  0.59280  0.73282  1.0000
  C   C119      1.0  0.37334  0.68441  0.27351  1.0000
  C   C120      1.0  0.62820  0.31471  0.76970  1.0000
  C   C121      1.0  0.35898  0.70119  0.29186  1.0000
  C   C122      1.0  0.64186  0.29713  0.77468  1.0000
  C   C123      1.0  0.37096  0.63498  0.24853  1.0000
  C   C124      1.0  0.35611  0.60611  0.33911  1.0000
  C   C125      1.0  0.36972  0.58891  0.34713  1.0000
  C   C126      1.0  0.39851  0.59949  0.26061  1.0000
  C   C127      1.0  0.41336  0.62816  0.16639  1.0000
  C   C128      1.0  0.39974  0.64557  0.16174  1.0000
  C   C129      1.0  0.51582  0.48018  0.13042  1.0000
  C   C130      1.0  0.48720  0.52305  0.62844  1.0000
  C   C131      1.0  0.50467  0.49294  0.24858  1.0000
  C   C132      1.0  0.49917  0.51101  0.74516  1.0000
  N   N1        1.0  0.83170  0.41799  0.30683  1.0000
  N   N2        1.0  0.16484  0.58102  0.74507  1.0000
  N   N3        1.0  0.59386  0.41713  0.28597  1.0000
  N   N4        1.0  0.40340  0.58107  0.79758  1.0000
  N   N5        1.0  0.58422  0.17834  0.25582  1.0000
  N   N6        1.0  0.41182  0.81943  0.83400  1.0000
  N   N7        1.0  0.18205  0.60059  0.27092  1.0000
  N   N8        1.0  0.81764  0.39867  0.84214  1.0000
  N   N9        1.0  0.41030  0.58077  0.28710  1.0000
  N   N10       1.0  0.59435  0.42184  0.78321  1.0000
  N   N11       1.0  0.42227  0.82783  0.34930  1.0000
  N   N12       1.0  0.57819  0.16909  0.75629  1.0000
  C   C133      1.0  0.64780  0.40200  0.82108  1.0000
  C   C134      1.0  0.63573  0.37238  0.78058  1.0000
  C  Sn1       1.0  0.60762  0.35749  0.71917  1.0000
  C  Sn2       1.0  0.59135  0.37260  0.69800  1.0000
  C   C135      1.0  0.60363  0.40224  0.73877  1.0000
  C   C136      1.0  0.63177  0.41693  0.80018  1.0000
  H   H73       1.0  0.66958  0.41337  0.86850  1.0000
  O  Te1       1.0  0.59589  0.32789  0.67938  1.0000
  O  Te2       1.0  0.56321  0.35825  0.63680  1.0000
  H   H74       1.0  0.64112  0.43987  0.83142  1.0000
  Mg  Mg1       1.0  0.55668  0.31787  0.60022  1.0000
  C   C137      1.0  0.51050  0.42199  0.15015  1.0000
  C   C138      1.0  0.51924  0.45048  0.20072  1.0000
  C  Sn3       1.0  0.54553  0.46608  0.27913  1.0000
  C  Sn4       1.0  0.56335  0.45285  0.30722  1.0000
  C   C139      1.0  0.55442  0.42434  0.25605  1.0000
  C   C140      1.0  0.52807  0.40893  0.17774  1.0000
  H   H75       1.0  0.49012  0.41006  0.08948  1.0000
  O  Te3       1.0  0.55393  0.49453  0.32892  1.0000
  O  Te4       1.0  0.58974  0.46795  0.38525  1.0000
  H   H76       1.0  0.52132  0.38687  0.13850  1.0000
  Mg  Mg2       1.0  0.59178  0.50621  0.43042  1.0000
  C   C141      1.0  0.09479  0.57103  0.31691  1.0000
  C   C142      1.0  0.07355  0.54620  0.24253  1.0000
  C  Sn5       1.0  0.08289  0.53125  0.13546  1.0000
  C  Sn6       1.0  0.11408  0.54139  0.10252  1.0000
  C   C143      1.0  0.13515  0.56625  0.17764  1.0000
  C   C144      1.0  0.12556  0.58105  0.28453  1.0000
  H   H77       1.0  0.08737  0.58248  0.39969  1.0000
  O  Te5       1.0  0.06137  0.50648  0.06215  1.0000
  O  Te6       1.0  0.10376  0.50777  0.99605  1.0000
  H   H78       1.0  0.14200  0.60026  0.34219  1.0000
  Mg  Mg3       1.0  0.06580  0.47505  0.92598  1.0000
  C   C145      1.0  0.43459  0.53988  0.82895  1.0000
  C   C146      1.0  0.44428  0.56959  0.76665  1.0000
  C  Sn7       1.0  0.47140  0.58664  0.66099  1.0000
  C  Sn8       1.0  0.48909  0.57364  0.61708  1.0000
  C   C147      1.0  0.47918  0.54389  0.67997  1.0000
  C   C148      1.0  0.45201  0.52704  0.78565  1.0000
  H   H79       1.0  0.41356  0.52683  0.91064  1.0000
  O  Te7       1.0  0.48076  0.61630  0.59991  1.0000
  O  Te8       1.0  0.51628  0.59017  0.51166  1.0000
  H   H80       1.0  0.44450  0.50403  0.83378  1.0000
  Mg  Mg4       1.0  0.51949  0.62972  0.46034  1.0000
  C   C149      1.0  0.46896  0.91765  0.32395  1.0000
  C   C150      1.0  0.46025  0.93486  0.22792  1.0000
  C  Sn9       1.0  0.43099  0.92164  0.18139  1.0000
  C  Sn10      1.0  0.41011  0.89061  0.23217  1.0000
  C   C151      1.0  0.41904  0.87358  0.32832  1.0000
  C   C152      1.0  0.44838  0.88704  0.37414  1.0000
  H   H81       1.0  0.49166  0.92806  0.35948  1.0000
  O  Te9       1.0  0.42266  0.93917  0.08537  1.0000
  O  Te10      1.0  0.38072  0.87683  0.18747  1.0000
  H   H82       1.0  0.45511  0.87370  0.44858  1.0000
  Mg  Mg5       1.0  0.38006  0.91015  0.05569  1.0000
  C   C153      1.0  0.58939  0.23714  0.87401  1.0000
  C   C154      1.0  0.61798  0.25974  0.79949  1.0000
  C  Sn11      1.0  0.63508  0.25271  0.68823  1.0000
  C  Sn12      1.0  0.62327  0.22247  0.65110  1.0000
  C   C155      1.0  0.59464  0.20002  0.72622  1.0000
  C   C156      1.0  0.57772  0.20731  0.83741  1.0000
  H   H83       1.0  0.57629  0.24277  0.95998  1.0000
  O  Te11      1.0  0.66360  0.27557  0.61492  1.0000
  O  Te12      1.0  0.63988  0.21482  0.54030  1.0000
  H   H84       1.0  0.55558  0.18980  0.89501  1.0000
  Mg  Mg6       1.0  0.67762  0.25391  0.47208  1.0000
  C   C157      1.0  0.91630  0.47695  0.66706  1.0000
  C   C158      1.0  0.93053  0.46862  0.78348  1.0000
  C  Sn13      1.0  0.91398  0.44169  0.89045  1.0000
  C  Sn14      1.0  0.88261  0.42280  0.88035  1.0000
  C   C159      1.0  0.86859  0.43132  0.76338  1.0000
  C   C160      1.0  0.88537  0.45832  0.65698  1.0000
  H   H85       1.0  0.92928  0.49783  0.58467  1.0000
  O  Te13      1.0  0.94880  0.45282  0.00607  1.0000
  O  Te14      1.0  0.86553  0.39575  0.98571  1.0000
  H   H86       1.0  0.87436  0.46475  0.56678  1.0000
  Mg  Mg7       1.0  0.91585  0.41376  0.12264  1.0000
  C   C161      1.0  0.59920  0.36815  0.17164  1.0000
  C   C162      1.0  0.60416  0.39279  0.25802  1.0000
  C  Sn15      1.0  0.62965  0.40752  0.34393  1.0000
  C  Sn16      1.0  0.65053  0.39734  0.34307  1.0000
  C   C163      1.0  0.64537  0.37269  0.25617  1.0000
  C   C164      1.0  0.61979  0.35811  0.17067  1.0000
  H   H87       1.0  0.57942  0.35689  0.10540  1.0000
  O  Te15      1.0  0.63426  0.43209  0.42965  1.0000
  O  Te16      1.0  0.67620  0.41165  0.42783  1.0000
  H   H88       1.0  0.61596  0.33905  0.10371  1.0000
  Mg  Mg8       1.0  0.67258  0.44416  0.52653  1.0000
  C   C165      1.0  0.46076  0.88677  0.90236  1.0000
  C   C166      1.0  0.43535  0.87389  0.81448  1.0000
  C  Sn17      1.0  0.42609  0.89207  0.73381  1.0000
  C  Sn18      1.0  0.44262  0.92373  0.74143  1.0000
  C   C167      1.0  0.46802  0.93641  0.82957  1.0000
  C   C168      1.0  0.47709  0.91800  0.90989  1.0000
  H   H89       1.0  0.46779  0.87254  0.96443  1.0000
  O  Te17      1.0  0.40064  0.87882  0.64661  1.0000
  O  Te18      1.0  0.43386  0.94243  0.66189  1.0000
  H   H90       1.0  0.49677  0.92799  0.97783  1.0000
  Mg  Mg9       1.0  0.39764  0.91375  0.55868  1.0000
  C   C169      1.0  0.74292  0.34153  0.88396  1.0000
  C   C170      1.0  0.72641  0.35352  0.81736  1.0000
  C  Sn19      1.0  0.74119  0.38323  0.74091  1.0000
  C  Sn20      1.0  0.77311  0.40121  0.73109  1.0000
  C   C171      1.0  0.78942  0.38900  0.79799  1.0000
  C   C172      1.0  0.77440  0.35924  0.87427  1.0000
  H   H91       1.0  0.73129  0.31850  0.94290  1.0000
  O  Te19      1.0  0.72435  0.39487  0.67508  1.0000
  O  Te20      1.0  0.78846  0.43097  0.65530  1.0000
  H   H92       1.0  0.78719  0.34996  0.92572  1.0000
  Mg  Mg10      1.0  0.75555  0.43666  0.58402  1.0000
  C   C173      1.0  0.07554  0.54107  0.71739  1.0000
  C   C174      1.0  0.06119  0.51963  0.60490  1.0000
  C  Sn21      1.0  0.07633  0.50717  0.52166  1.0000
  C  Sn22      1.0  0.10638  0.51638  0.55188  1.0000
  C   C175      1.0  0.12052  0.53783  0.66475  1.0000
  C   C176      1.0  0.10517  0.55016  0.74733  1.0000
  H   H93       1.0  0.06366  0.55060  0.78137  1.0000
  O  Te21      1.0  0.06166  0.48579  0.40963  1.0000
  O  Te22      1.0  0.12202  0.50429  0.47043  1.0000
  H   H94       1.0  0.11628  0.56674  0.83450  1.0000
  Mg  Mg11      1.0  0.09241  0.47585  0.32905  1.0000
  C   C177      1.0  0.23950  0.59560  0.66829  1.0000
  C   C178      1.0  0.25691  0.62345  0.72997  1.0000
  C  Sn23      1.0  0.24298  0.63723  0.81129  1.0000
  C  Sn24      1.0  0.21102  0.62280  0.83110  1.0000
  C   C179      1.0  0.19381  0.59493  0.76906  1.0000
  C   C180      1.0  0.20798  0.58134  0.68783  1.0000
  H   H95       1.0  0.25047  0.58507  0.60552  1.0000
  O  Te23      1.0  0.26071  0.66507  0.87210  1.0000
  O  Te24      1.0  0.19651  0.63607  0.91194  1.0000
  H   H96       1.0  0.19450  0.55976  0.64019  1.0000
  Mg  Mg12      1.0  0.23046  0.67415  0.97320  1.0000
