data_image0
_chemical_formula_structural       H24C60N12SnCSn2CSnTe4Mg2SnCSn2CSnTe4Mg2SnCSn2CSnTe4Mg2SnCSn2CSnTe4Mg2SnCSn2CSnTe4Mg2SnCSn2CSnTe4Mg2SnCSn2CSnTe4Mg2SnCSn2CSnTe4Mg2SnCSn2CSnTe4Mg2SnCSn2CSnTe4Mg2SnCSn2CSnTe4Mg2SnCSn2CSnTe4Mg2SnCSn2CSnTe4Mg2SnCSn2CSnTe4Mg2SnCSn2CSnTe4Mg2SnCSn2CSnTe4Mg2SnCSn2CSnTe4Mg2SnCSn2CSnTe4Mg2SnCSn2CSnTe4Mg2SnCSn2CSnTe4Mg2SnCSn2CSnTe4Mg2SnCSn2CSnTe4Mg2SnCSn2CSnTe4Mg2SnCSn2CSnTe4Mg2
_chemical_formula_sum              "H24 C108 N12 Sn96 Te96 Mg48"
_cell_length_a       51.6817
_cell_length_b       51.6506
_cell_length_c       7.96421
_cell_angle_alpha    86.7145
_cell_angle_beta     86.0512
_cell_angle_gamma    120.39

_symmetry_space_group_name_H-M    'P1'
_space_group_IT_number       1

loop_
  _space_group_symop_operation_xyz
  'x, y, z'

loop_
  _atom_site_type_symbol
  _atom_site_label
  _atom_site_symmetry_multiplicity
  _atom_site_fract_x
  _atom_site_fract_y
  _atom_site_fract_z
  _atom_site_occupancy
  H   H1        1.0  0.38407  0.83078  0.31470  1.0000
  H   H2        1.0  0.61372  0.16761  0.62080  1.0000
  H   H3        1.0  0.70067  0.30939  0.25568  1.0000
  H   H4        1.0  0.29733  0.68945  0.77162  1.0000
  H   H5        1.0  0.17515  0.57149  0.08193  1.0000
  H   H6        1.0  0.83346  0.43185  0.63455  1.0000
  H   H7        1.0  0.70214  0.39323  0.26039  1.0000
  H   H8        1.0  0.29539  0.60516  0.77676  1.0000
  H   H9        1.0  0.44044  0.59513  0.06329  1.0000
  H   H10       1.0  0.56296  0.40568  0.60428  1.0000
  H   H11       1.0  0.61862  0.31081  0.23217  1.0000
  H   H12       1.0  0.37977  0.68781  0.77012  1.0000
  H   H13       1.0  0.60394  0.16960  0.04242  1.0000
  H   H14       1.0  0.39490  0.83723  0.65775  1.0000
  H   H15       1.0  0.31653  0.69952  0.30514  1.0000
  H   H16       1.0  0.68350  0.29765  0.78498  1.0000
  H   H17       1.0  0.83892  0.46080  0.22733  1.0000
  H   H18       1.0  0.16342  0.54775  0.59973  1.0000
  H   H19       1.0  0.31233  0.61556  0.23906  1.0000
  H   H20       1.0  0.69062  0.38421  0.76358  1.0000
  H   H21       1.0  0.55300  0.38309  0.21230  1.0000
  H   H22       1.0  0.44450  0.61602  0.66996  1.0000
  H   H23       1.0  0.39769  0.69545  0.27528  1.0000
  H   H24       1.0  0.60387  0.30353  0.76746  1.0000
  C   C1        1.0  0.40832  0.84248  0.32911  1.0000
  C   C2        1.0  0.59044  0.15551  0.68353  1.0000
  C   C3        1.0  0.68883  0.32179  0.25127  1.0000
  C   C4        1.0  0.30920  0.67706  0.77206  1.0000
  C   C5        1.0  0.70499  0.35317  0.25740  1.0000
  C   C6        1.0  0.29263  0.64559  0.76967  1.0000
  C   C7        1.0  0.47687  0.96571  0.08735  1.0000
  C   C8        1.0  0.52165  0.03345  0.54306  1.0000
  C   C9        1.0  0.49204  0.99190  0.17457  1.0000
  C   C10       1.0  0.50693  0.00710  0.66231  1.0000
  C   C11       1.0  0.16577  0.58043  0.17434  1.0000
  C   C12       1.0  0.83849  0.42172  0.74351  1.0000
  C   C13       1.0  0.68948  0.36895  0.25481  1.0000
  C   C14       1.0  0.30801  0.62961  0.77457  1.0000
  C   C15       1.0  0.65818  0.35399  0.24849  1.0000
  C   C16       1.0  0.33940  0.64462  0.77522  1.0000
  C   C17       1.0  0.03736  0.51736  0.31217  1.0000
  C   C18       1.0  0.96427  0.48157  0.85601  1.0000
  C   C19       1.0  0.01415  0.50867  0.20365  1.0000
  C   C20       1.0  0.98749  0.48905  0.72273  1.0000
  C   C21       1.0  0.43084  0.58084  0.18486  1.0000
  C   C22       1.0  0.57320  0.42097  0.70171  1.0000
  C   C23       1.0  0.64281  0.32277  0.23943  1.0000
  C   C24       1.0  0.35536  0.67612  0.77197  1.0000
  C   C25       1.0  0.65759  0.30630  0.24120  1.0000
  C   C26       1.0  0.34069  0.69277  0.77416  1.0000
  C   C27       1.0  0.48396  0.51709  0.46166  1.0000
  C   C28       1.0  0.51968  0.48625  0.95620  1.0000
  C   C29       1.0  0.49632  0.50270  0.36377  1.0000
  C   C30       1.0  0.50813  0.50129  0.85714  1.0000
  C   C31       1.0  0.58667  0.16112  0.15239  1.0000
  C   C32       1.0  0.41042  0.84109  0.75385  1.0000
  C   C33       1.0  0.32756  0.68647  0.29056  1.0000
  C   C34       1.0  0.67318  0.31147  0.77973  1.0000
  C   C35       1.0  0.31016  0.65565  0.27109  1.0000
  C   C36       1.0  0.69118  0.34287  0.77830  1.0000
  C   C37       1.0  0.51770  0.03528  0.37393  1.0000
  C   C38       1.0  0.48023  0.96359  0.91619  1.0000
  C   C39       1.0  0.50290  0.01039  0.27686  1.0000
  C   C40       1.0  0.49573  0.98851  0.78754  1.0000
  C   C41       1.0  0.84842  0.44673  0.26389  1.0000
  C   C42       1.0  0.15126  0.55709  0.66732  1.0000
  C   C43       1.0  0.32518  0.63951  0.25374  1.0000
  C   C44       1.0  0.67695  0.35982  0.76788  1.0000
  C   C45       1.0  0.35655  0.65341  0.25558  1.0000
  C   C46       1.0  0.64562  0.34637  0.76452  1.0000
  C   C47       1.0  0.96898  0.49008  0.01781  1.0000
  C   C48       1.0  0.03274  0.50835  0.48427  1.0000
  C   C49       1.0  0.99564  0.50109  0.10068  1.0000
  C   C50       1.0  0.00567  0.49612  0.59678  1.0000
  C   C51       1.0  0.56646  0.40604  0.24953  1.0000
  C   C52       1.0  0.43114  0.59280  0.73282  1.0000
  C   C53       1.0  0.37334  0.68441  0.27351  1.0000
  C   C54       1.0  0.62820  0.31471  0.76970  1.0000
  C   C55       1.0  0.35898  0.70119  0.29186  1.0000
  C   C56       1.0  0.64186  0.29713  0.77468  1.0000
  C   C57       1.0  0.51582  0.48018  0.13042  1.0000
  C   C58       1.0  0.48720  0.52305  0.62844  1.0000
  C   C59       1.0  0.50467  0.49294  0.24858  1.0000
  C   C60       1.0  0.49917  0.51101  0.74516  1.0000
  N   N1        1.0  0.83170  0.41799  0.30683  1.0000
  N   N2        1.0  0.16484  0.58102  0.74507  1.0000
  N   N3        1.0  0.59386  0.41713  0.28597  1.0000
  N   N4        1.0  0.40340  0.58107  0.79758  1.0000
  N   N5        1.0  0.58422  0.17834  0.25582  1.0000
  N   N6        1.0  0.41182  0.81943  0.83400  1.0000
  N   N7        1.0  0.18205  0.60059  0.27092  1.0000
  N   N8        1.0  0.81764  0.39867  0.84214  1.0000
  N   N9        1.0  0.41030  0.58077  0.28710  1.0000
  N   N10       1.0  0.59435  0.42184  0.78321  1.0000
  N   N11       1.0  0.42227  0.82783  0.34930  1.0000
  N   N12       1.0  0.57819  0.16909  0.75629  1.0000
  C  Sn1       1.0  0.64596  0.25131  0.11101  1.0000
  C   C61       1.0  0.63836  0.27056  0.18814  1.0000
  C  Sn2       1.0  0.61354  0.25888  0.31160  1.0000
  C  Sn3       1.0  0.59597  0.22730  0.35905  1.0000
  C   C62       1.0  0.60358  0.20807  0.28196  1.0000
  C  Sn4       1.0  0.62839  0.21973  0.15846  1.0000
  O  Te1       1.0  0.65060  0.24439  0.98789  1.0000
  O  Te2       1.0  0.60637  0.27858  0.38688  1.0000
  O  Te3       1.0  0.57104  0.21514  0.48227  1.0000
  O  Te4       1.0  0.63556  0.20005  0.08322  1.0000
  Mg  Mg1       1.0  0.57033  0.25116  0.54830  1.0000
  Mg  Mg2       1.0  0.65133  0.20835  0.92186  1.0000
  C  Sn5       1.0  0.35620  0.76886  0.77076  1.0000
  C   C63       1.0  0.38355  0.78506  0.83876  1.0000
  C  Sn6       1.0  0.40110  0.77207  0.86757  1.0000
  C  Sn7       1.0  0.39110  0.74228  0.82749  1.0000
  C   C64       1.0  0.36376  0.72610  0.75951  1.0000
  C  Sn8       1.0  0.34620  0.73907  0.73068  1.0000
  O  Te5       1.0  0.33902  0.78230  0.74300  1.0000
  O  Te6       1.0  0.42836  0.78871  0.93572  1.0000
  O  Te7       1.0  0.40830  0.72885  0.85532  1.0000
  O  Te8       1.0  0.31895  0.72245  0.66255  1.0000
  Mg  Mg3       1.0  0.44379  0.76061  0.95038  1.0000
  Mg  Mg4       1.0  0.30351  0.75053  0.64776  1.0000
  C  Sn9       1.0  0.41407  0.89338  0.17211  1.0000
  C   C65       1.0  0.42325  0.87677  0.26989  1.0000
  C  Sn10      1.0  0.44917  0.89149  0.35229  1.0000
  C  Sn11      1.0  0.46627  0.92349  0.33674  1.0000
  C   C66       1.0  0.45709  0.94009  0.23904  1.0000
  C  Sn12      1.0  0.43118  0.92538  0.15656  1.0000
  O  Te9       1.0  0.38808  0.87818  0.09085  1.0000
  O  Te10      1.0  0.45790  0.87440  0.44929  1.0000
  O  Te11      1.0  0.49228  0.93868  0.41811  1.0000
  O  Te12      1.0  0.42245  0.94245  0.05964  1.0000
  Mg  Mg5       1.0  0.49497  0.90547  0.53587  1.0000
  Mg  Mg6       1.0  0.36510  0.89232  0.97308  1.0000
  C  Sn13      1.0  0.58293  0.10721  0.52030  1.0000
  C   C67       1.0  0.57415  0.12217  0.63062  1.0000
  C  Sn14      1.0  0.54926  0.10580  0.75294  1.0000
  C  Sn15      1.0  0.53281  0.07381  0.76535  1.0000
  C   C68       1.0  0.54160  0.05886  0.65510  1.0000
  C  Sn16      1.0  0.56649  0.07522  0.53271  1.0000
  O  Te13      1.0  0.60789  0.12404  0.39899  1.0000
  O  Te14      1.0  0.54090  0.12126  0.86177  1.0000
  O  Te15      1.0  0.50784  0.05699  0.88679  1.0000
  O  Te16      1.0  0.57485  0.05977  0.42395  1.0000
  Mg  Mg7       1.0  0.52555  0.10743  0.00618  1.0000
  Mg  Mg8       1.0  0.61047  0.09268  0.27956  1.0000
  C  Sn17      1.0  0.77949  0.41704  0.21552  1.0000
  C   C69       1.0  0.79660  0.40887  0.30952  1.0000
  C  Sn18      1.0  0.78456  0.37898  0.37778  1.0000
  C  Sn19      1.0  0.75480  0.35679  0.35146  1.0000
  C   C70       1.0  0.73771  0.36496  0.25748  1.0000
  C  Sn20      1.0  0.74973  0.39485  0.18919  1.0000
  O  Te17      1.0  0.79198  0.44705  0.14845  1.0000
  O  Te18      1.0  0.80210  0.37136  0.47136  1.0000
  O  Te19      1.0  0.74231  0.32676  0.41862  1.0000
  O  Te20      1.0  0.73221  0.40247  0.09564  1.0000
  Mg  Mg9       1.0  0.77509  0.32749  0.53695  1.0000
  Mg  Mg10      1.0  0.75920  0.44633  0.02993  1.0000
  C  Sn21      1.0  0.23280  0.63178  0.88056  1.0000
  C   C71       1.0  0.25483  0.62602  0.81274  1.0000
  C  Sn22      1.0  0.24844  0.60610  0.68930  1.0000
  C  Sn23      1.0  0.21942  0.59164  0.63237  1.0000
  C   C72       1.0  0.19741  0.59740  0.70016  1.0000
  C  Sn24      1.0  0.20378  0.61732  0.82363  1.0000
  O  Te21      1.0  0.25996  0.67088  0.00383  1.0000
  O  Te22      1.0  0.27083  0.60070  0.62342  1.0000
  O  Te23      1.0  0.21254  0.57162  0.50900  1.0000
  O  Te24      1.0  0.18141  0.62272  0.88947  1.0000
  Mg  Mg11      1.0  0.25056  0.57161  0.45778  1.0000
  Mg  Mg12      1.0  0.22193  0.67091  0.05505  1.0000
  C  Sn25      1.0  0.11214  0.57327  0.33379  1.0000
  C   C73       1.0  0.12999  0.56555  0.23367  1.0000
  C  Sn26      1.0  0.11737  0.54499  0.11468  1.0000
  C  Sn27      1.0  0.08627  0.53188  0.09526  1.0000
  C   C74       1.0  0.06844  0.53960  0.19531  1.0000
  C  Sn28      1.0  0.08104  0.56016  0.31437  1.0000
  O  Te25      1.0  0.12523  0.59388  0.45194  1.0000
  O  Te26      1.0  0.13567  0.53761  0.01608  1.0000
  O  Te27      1.0  0.05292  0.49215  0.97698  1.0000
  O  Te28      1.0  0.06276  0.56753  0.41291  1.0000
  Mg  Mg13      1.0  0.08714  0.48931  0.87230  1.0000
  Mg  Mg14      1.0  0.09100  0.59675  0.55665  1.0000
  C  Sn29      1.0  0.88574  0.42791  0.93086  1.0000
  C   C75       1.0  0.87182  0.43750  0.81916  1.0000
  C  Sn30      1.0  0.88903  0.45984  0.68516  1.0000
  C  Sn31      1.0  0.92082  0.47285  0.66225  1.0000
  C   C76       1.0  0.93472  0.46326  0.77388  1.0000
  C  Sn32      1.0  0.91753  0.44092  0.90795  1.0000
  O  Te29      1.0  0.88836  0.42463  0.06394  1.0000
  O  Te30      1.0  0.87460  0.46906  0.57518  1.0000
  O  Te31      1.0  0.93846  0.49524  0.52904  1.0000
  O  Te32      1.0  0.95221  0.45079  0.01787  1.0000
  Mg  Mg15      1.0  0.90838  0.50024  0.41281  1.0000
  Mg  Mg16      1.0  0.91845  0.41960  0.18022  1.0000
  C  Sn33      1.0  0.61409  0.36607  0.13461  1.0000
  C   C77       1.0  0.64046  0.37306  0.20692  1.0000
  C  Sn34      1.0  0.65018  0.39308  0.33060  1.0000
  C  Sn35      1.0  0.63318  0.40638  0.38320  1.0000
  C   C78       1.0  0.60683  0.39938  0.31093  1.0000
  C  Sn36      1.0  0.59710  0.37937  0.18720  1.0000
  O  Te33      1.0  0.60480  0.34600  0.01117  1.0000
  O  Te34      1.0  0.67662  0.39973  0.40100  1.0000
  O  Te35      1.0  0.64250  0.42647  0.50673  1.0000
  O  Te36      1.0  0.57067  0.37271  0.11684  1.0000
  Mg  Mg17      1.0  0.68002  0.42841  0.56498  1.0000
  Mg  Mg18      1.0  0.54698  0.32494  0.95292  1.0000
  C  Sn37      1.0  0.38300  0.63237  0.62929  1.0000
  C   C79       1.0  0.35681  0.62532  0.73238  1.0000
  C  Sn38      1.0  0.34723  0.60502  0.87833  1.0000
  C  Sn39      1.0  0.36419  0.59150  0.92222  1.0000
  C   C80       1.0  0.39036  0.59856  0.81918  1.0000
  C  Sn40      1.0  0.39996  0.61885  0.67318  1.0000
  O  Te37      1.0  0.39216  0.65273  0.48398  1.0000
  O  Te38      1.0  0.32096  0.59832  0.97937  1.0000
  O  Te39      1.0  0.37527  0.59023  0.06766  1.0000
  O  Te40      1.0  0.42621  0.62556  0.57219  1.0000
  Mg  Mg19      1.0  0.33797  0.58832  0.16470  1.0000
  Mg  Mg20      1.0  0.42950  0.65466  0.38689  1.0000
  C  Sn41      1.0  0.46906  0.55583  0.12477  1.0000
  C   C81       1.0  0.44219  0.55429  0.18420  1.0000
  C  Sn42      1.0  0.42769  0.54006  0.34536  1.0000
  C  Sn43      1.0  0.44032  0.52712  0.44934  1.0000
  C   C82       1.0  0.46718  0.52867  0.38991  1.0000
  C  Sn44      1.0  0.48170  0.54289  0.22874  1.0000
  O  Te41      1.0  0.46291  0.55107  0.96324  1.0000
  O  Te42      1.0  0.40083  0.53880  0.40199  1.0000
  O  Te43      1.0  0.42618  0.51277  0.61098  1.0000
  O  Te44      1.0  0.50853  0.54416  0.17212  1.0000
  Mg  Mg21      1.0  0.39005  0.51686  0.63152  1.0000
  Mg  Mg22      1.0  0.49907  0.54701  0.94266  1.0000
  C  Sn45      1.0  0.57383  0.48512  0.84688  1.0000
  C   C83       1.0  0.54622  0.48215  0.81560  1.0000
  C  Sn46      1.0  0.52421  0.45616  0.75331  1.0000
  C  Sn47      1.0  0.52990  0.43264  0.72172  1.0000
  C   C84       1.0  0.55750  0.43562  0.75302  1.0000
  C  Sn48      1.0  0.57952  0.46161  0.81529  1.0000
  O  Te45      1.0  0.59551  0.51131  0.90916  1.0000
  O  Te46      1.0  0.49678  0.45370  0.72297  1.0000
  O  Te47      1.0  0.50820  0.40645  0.65939  1.0000
  O  Te48      1.0  0.60693  0.46407  0.84565  1.0000
  Mg  Mg23      1.0  0.47436  0.41365  0.63818  1.0000
  Mg  Mg24      1.0  0.62936  0.50409  0.93052  1.0000
  C  Sn49      1.0  0.39953  0.75251  0.45275  1.0000
  C   C85       1.0  0.37561  0.73565  0.35924  1.0000
  C  Sn50      1.0  0.36851  0.75002  0.23207  1.0000
  C  Sn51      1.0  0.38569  0.78190  0.19754  1.0000
  C   C86       1.0  0.40960  0.79875  0.29100  1.0000
  C  Sn52      1.0  0.41671  0.78440  0.41823  1.0000
  O  Te49      1.0  0.40622  0.73768  0.57930  1.0000
  O  Te50      1.0  0.34449  0.73268  0.14032  1.0000
  O  Te51      1.0  0.37898  0.79674  0.07088  1.0000
  O  Te52      1.0  0.44071  0.80173  0.50992  1.0000
  Mg  Mg25      1.0  0.32389  0.74419  0.98048  1.0000
  Mg  Mg26      1.0  0.44108  0.77114  0.66972  1.0000
  C  Sn53      1.0  0.63180  0.22612  0.69069  1.0000
  C   C87       1.0  0.60377  0.20375  0.77307  1.0000
  C  Sn54      1.0  0.58373  0.21148  0.84832  1.0000
  C  Sn55      1.0  0.59188  0.24222  0.84100  1.0000
  C   C88       1.0  0.61989  0.26458  0.75863  1.0000
  C  Sn56      1.0  0.63994  0.25686  0.68336  1.0000
  O  Te53      1.0  0.65147  0.21787  0.61633  1.0000
  O  Te54      1.0  0.55584  0.18871  0.93002  1.0000
  O  Te55      1.0  0.57217  0.25046  0.91545  1.0000
  O  Te56      1.0  0.66781  0.27961  0.60169  1.0000
  Mg  Mg27      1.0  0.55703  0.23037  0.01206  1.0000
  Mg  Mg28      1.0  0.68691  0.25707  0.51953  1.0000
  C  Sn57      1.0  0.56498  0.08447  0.17127  1.0000
  C   C89       1.0  0.53899  0.06919  0.28719  1.0000
  C  Sn58      1.0  0.52347  0.08352  0.33893  1.0000
  C  Sn59      1.0  0.53415  0.11377  0.27336  1.0000
  C   C90       1.0  0.56013  0.12903  0.15749  1.0000
  C  Sn60      1.0  0.57566  0.11471  0.10570  1.0000
  O  Te57      1.0  0.58013  0.06969  0.12131  1.0000
  O  Te58      1.0  0.49754  0.06779  0.45499  1.0000
  O  Te59      1.0  0.51898  0.12854  0.32343  1.0000
  O  Te60      1.0  0.58131  0.11134  0.98969  1.0000
  Mg  Mg29      1.0  0.48473  0.09762  0.48424  1.0000
  Mg  Mg30      1.0  0.59413  0.08152  0.96029  1.0000
  C  Sn61      1.0  0.43243  0.91775  0.77023  1.0000
  C   C91       1.0  0.45658  0.92978  0.86788  1.0000
  C  Sn62      1.0  0.47035  0.91343  0.91176  1.0000
  C  Sn63      1.0  0.45978  0.88444  0.85682  1.0000
  C   C92       1.0  0.43565  0.87242  0.75921  1.0000
  C  Sn64      1.0  0.42186  0.88876  0.71529  1.0000
  O  Te61      1.0  0.41900  0.93450  0.72784  1.0000
  O  Te62      1.0  0.51472  0.94502  0.00954  1.0000
  O  Te63      1.0  0.47323  0.86769  0.89930  1.0000
  O  Te64      1.0  0.39777  0.87628  0.61756  1.0000
  Mg  Mg31      1.0  0.52561  0.91346  0.03463  1.0000
  Mg  Mg32      1.0  0.38688  0.90782  0.59231  1.0000
  C  Sn65      1.0  0.25245  0.64510  0.40186  1.0000
  C   C93       1.0  0.27243  0.63764  0.32264  1.0000
  C  Sn66      1.0  0.26356  0.61837  0.19509  1.0000
  C  Sn67      1.0  0.23411  0.60631  0.14560  1.0000
  C   C94       1.0  0.21415  0.61377  0.22478  1.0000
  C  Sn68      1.0  0.22300  0.63304  0.35238  1.0000
  O  Te65      1.0  0.26181  0.66441  0.52906  1.0000
  O  Te66      1.0  0.28393  0.61123  0.11778  1.0000
  O  Te67      1.0  0.22476  0.58699  0.01829  1.0000
  O  Te68      1.0  0.20265  0.64018  0.42964  1.0000
  Mg  Mg33      1.0  0.24038  0.56487  0.95081  1.0000
  Mg  Mg34      1.0  0.22591  0.66746  0.59655  1.0000
  C  Sn69      1.0  0.75232  0.38976  0.67580  1.0000
  C   C95       1.0  0.72965  0.36046  0.73888  1.0000
  C  Sn70      1.0  0.73496  0.34399  0.86290  1.0000
  C  Sn71      1.0  0.76352  0.35709  0.92525  1.0000
  C   C96       1.0  0.78616  0.38637  0.86220  1.0000
  C  Sn72      1.0  0.78088  0.40285  0.73816  1.0000
  O  Te69      1.0  0.74652  0.40581  0.55184  1.0000
  O  Te70      1.0  0.71195  0.31474  0.92397  1.0000
  O  Te71      1.0  0.78957  0.36010  0.04930  1.0000
  O  Te72      1.0  0.80387  0.43209  0.67711  1.0000
  Mg  Mg35      1.0  0.75104  0.32102  0.09271  1.0000
  Mg  Mg36      1.0  0.78506  0.44493  0.50845  1.0000
  C  Sn73      1.0  0.90083  0.48805  0.08216  1.0000
  C   C97       1.0  0.88268  0.46366  0.20439  1.0000
  C  Sn74      1.0  0.89558  0.45140  0.30663  1.0000
  C  Sn75      1.0  0.92728  0.46379  0.28636  1.0000
  C   C98       1.0  0.94542  0.48817  0.16421  1.0000
  C  Sn76      1.0  0.93253  0.50044  0.06189  1.0000
  O  Te73      1.0  0.86718  0.48085  0.98135  1.0000
  O  Te74      1.0  0.87697  0.42700  0.42792  1.0000
  O  Te75      1.0  0.94066  0.45187  0.38729  1.0000
  O  Te76      1.0  0.93086  0.50573  0.94068  1.0000
  Mg  Mg37      1.0  0.90583  0.41866  0.53488  1.0000
  Mg  Mg38      1.0  0.90202  0.51410  0.83372  1.0000
  C  Sn77      1.0  0.08212  0.49940  0.55128  1.0000
  C   C99       1.0  0.06040  0.50679  0.60101  1.0000
  C  Sn78      1.0  0.06870  0.53355  0.67326  1.0000
  C  Sn79      1.0  0.09936  0.55335  0.69620  1.0000
  C   C100      1.0  0.12106  0.54596  0.64646  1.0000
  C  Sn80      1.0  0.11278  0.51919  0.57421  1.0000
  O  Te77      1.0  0.07331  0.47252  0.47930  1.0000
  O  Te78      1.0  0.04658  0.54045  0.72203  1.0000
  O  Te79      1.0  0.10816  0.58024  0.76824  1.0000
  O  Te80      1.0  0.13488  0.51229  0.52543  1.0000
  Mg  Mg39      1.0  0.06975  0.57971  0.81425  1.0000
  Mg  Mg40      1.0  0.11173  0.47305  0.43313  1.0000
  C  Sn81      1.0  0.41611  0.63729  0.19889  1.0000
  C   C101      1.0  0.40461  0.60840  0.28209  1.0000
  C  Sn82      1.0  0.37390  0.59049  0.33992  1.0000
  C  Sn83      1.0  0.35428  0.60166  0.31397  1.0000
  C   C102      1.0  0.36579  0.63053  0.23079  1.0000
  C  Sn84      1.0  0.39649  0.64846  0.17294  1.0000
  O  Te81      1.0  0.44688  0.65480  0.14214  1.0000
  O  Te82      1.0  0.36293  0.56169  0.42280  1.0000
  O  Te83      1.0  0.32349  0.58412  0.37081  1.0000
  O  Te84      1.0  0.40747  0.67724  0.09008  1.0000
  Mg  Mg41      1.0  0.31929  0.54637  0.47672  1.0000
  Mg  Mg42      1.0  0.45110  0.69257  0.03603  1.0000
  C  Sn85      1.0  0.64268  0.41392  0.77589  1.0000
  C   C103      1.0  0.61476  0.40740  0.72634  1.0000
  C  Sn86      1.0  0.59301  0.37783  0.70367  1.0000
  C  Sn87      1.0  0.59929  0.35428  0.73119  1.0000
  C   C104      1.0  0.62719  0.36080  0.78074  1.0000
  C  Sn88      1.0  0.64896  0.39036  0.80342  1.0000
  O  Te85      1.0  0.66409  0.44364  0.79782  1.0000
  O  Te86      1.0  0.56527  0.37187  0.65403  1.0000
  O  Te87      1.0  0.57786  0.32454  0.70922  1.0000
  O  Te88      1.0  0.67668  0.39633  0.85306  1.0000
  Mg  Mg43      1.0  0.54341  0.32775  0.64071  1.0000
  Mg  Mg44      1.0  0.69856  0.44043  0.86650  1.0000
  C  Sn89      1.0  0.50664  0.42034  0.20504  1.0000
  C   C105      1.0  0.51756  0.45005  0.24113  1.0000
  C  Sn90      1.0  0.54737  0.46794  0.27579  1.0000
  C  Sn91      1.0  0.56669  0.45589  0.27424  1.0000
  C   C106      1.0  0.55577  0.42620  0.23813  1.0000
  C  Sn92      1.0  0.52596  0.40829  0.20349  1.0000
  O  Te89      1.0  0.47676  0.40286  0.17076  1.0000
  O  Te90      1.0  0.55777  0.49758  0.31158  1.0000
  O  Te91      1.0  0.59659  0.47340  0.30857  1.0000
  O  Te92      1.0  0.51557  0.37867  0.16769  1.0000
  Mg  Mg45      1.0  0.60026  0.51248  0.35014  1.0000
  Mg  Mg46      1.0  0.47308  0.36376  0.12902  1.0000
  C  Sn93      1.0  0.49329  0.58157  0.65763  1.0000
  C   C107      1.0  0.48304  0.55178  0.72125  1.0000
  C  Sn94      1.0  0.45292  0.53267  0.78797  1.0000
  C  Sn95      1.0  0.43262  0.54355  0.79107  1.0000
  C   C108      1.0  0.44287  0.57332  0.72745  1.0000
  C  Sn96      1.0  0.47299  0.59245  0.66073  1.0000
  O  Te93      1.0  0.52350  0.60027  0.59151  1.0000
  O  Te94      1.0  0.44319  0.50299  0.85090  1.0000
  O  Te95      1.0  0.40239  0.52482  0.85727  1.0000
  O  Te96      1.0  0.48272  0.62211  0.59780  1.0000
  Mg  Mg47      1.0  0.39990  0.48618  0.92794  1.0000
  Mg  Mg48      1.0  0.52600  0.63893  0.52066  1.0000
