data_image0
_chemical_formula_structural       H40C112N16C2Sn2C2HTe2HMgC2Sn2C2HTe2HMgC2Sn2C2HTe2HMgC2Sn2C2HTe2HMgC2Sn2C2HTe2HMgC2Sn2C2HTe2HMgC2Sn2C2HTe2HMgC2Sn2C2HTe2HMgC2Sn2C2HTe2HMgC2Sn2C2HTe2HMgC2Sn2C2HTe2HMgC2Sn2C2HTe2HMgC2Sn2C2HTe2HMgC2Sn2C2HTe2HMgC2Sn2C2HTe2HMgC2Sn2C2HTe2HMgC2Sn2C2HTe2HMgC2Sn2C2HTe2HMgC2Sn2C2HTe2HMgC2Sn2C2HTe2HMgC2Sn2C2HTe2HMgC2Sn2C2HTe2HMgC2Sn2C2HTe2HMgC2Sn2C2HTe2HMgC2Sn2C2HTe2HMgC2Sn2C2HTe2HMgC2Sn2C2HTe2HMgC2Sn2C2HTe2HMgC2Sn2C2HTe2HMgC2Sn2C2HTe2HMgC2Sn2C2HTe2HMgC2Sn2C2HTe2HMg
_chemical_formula_sum              "H104 C240 N16 Sn64 Te64 Mg32"
_cell_length_a       53.3663
_cell_length_b       39.6086
_cell_length_c       8.03925
_cell_angle_alpha    90.0134
_cell_angle_beta     115.154
_cell_angle_gamma    89.91

_symmetry_space_group_name_H-M    'P1'
_space_group_IT_number       1

loop_
  _space_group_symop_operation_xyz
  'x, y, z'

loop_
  _atom_site_type_symbol
  _atom_site_label
  _atom_site_symmetry_multiplicity
  _atom_site_fract_x
  _atom_site_fract_y
  _atom_site_fract_z
  _atom_site_occupancy
  H   H1        1.0  0.56126  0.97127  0.20371  1.0000
  H   H2        1.0  0.44050  0.97085  0.29510  1.0000
  H   H3        1.0  0.06147  0.47027  0.21345  1.0000
  H   H4        1.0  0.94112  0.47160  0.31020  1.0000
  H   H5        1.0  0.44099  0.03257  0.30265  1.0000
  H   H6        1.0  0.56146  0.03301  0.20781  1.0000
  H   H7        1.0  0.94121  0.53329  0.30748  1.0000
  H   H8        1.0  0.06138  0.53201  0.20831  1.0000
  H   H9        1.0  0.60312  0.18526  0.14589  1.0000
  H   H10       1.0  0.39883  0.19341  0.28458  1.0000
  H   H11       1.0  0.10127  0.69315  0.19490  1.0000
  H   H12       1.0  0.89748  0.69276  0.27189  1.0000
  H   H13       1.0  0.40030  0.82007  0.37440  1.0000
  H   H14       1.0  0.60121  0.80920  0.21491  1.0000
  H   H15       1.0  0.90257  0.31193  0.34200  1.0000
  H   H16       1.0  0.10022  0.31675  0.12982  1.0000
  H   H17       1.0  0.50086  0.88569  0.24682  1.0000
  H   H18       1.0  0.00080  0.38563  0.26062  1.0000
  H   H19       1.0  0.50068  0.11817  0.25323  1.0000
  H   H20       1.0  0.00080  0.61809  0.24741  1.0000
  H   H21       1.0  0.56034  0.96812  0.70221  1.0000
  H   H22       1.0  0.44017  0.96628  0.80054  1.0000
  H   H23       1.0  0.06015  0.46586  0.71329  1.0000
  H   H24       1.0  0.94011  0.46979  0.81384  1.0000
  H   H25       1.0  0.44014  0.02798  0.80729  1.0000
  H   H26       1.0  0.55984  0.02988  0.70283  1.0000
  H   H27       1.0  0.94064  0.53152  0.80728  1.0000
  H   H28       1.0  0.06092  0.52759  0.71139  1.0000
  H   H29       1.0  0.59689  0.18463  0.62627  1.0000
  H   H30       1.0  0.39494  0.18960  0.76405  1.0000
  H   H31       1.0  0.10116  0.68995  0.70357  1.0000
  H   H32       1.0  0.89904  0.69241  0.77339  1.0000
  H   H33       1.0  0.39994  0.81392  0.87106  1.0000
  H   H34       1.0  0.60219  0.80841  0.70049  1.0000
  H   H35       1.0  0.89689  0.31211  0.83762  1.0000
  H   H36       1.0  0.09610  0.31155  0.61091  1.0000
  H   H37       1.0  0.50085  0.88181  0.74764  1.0000
  H   H38       1.0  0.99821  0.38229  0.75663  1.0000
  H   H39       1.0  0.49927  0.11429  0.75616  1.0000
  H   H40       1.0  0.00125  0.61484  0.74815  1.0000
  C   C1        1.0  0.52460  0.92996  0.25808  1.0000
  C   C2        1.0  0.47733  0.92999  0.23898  1.0000
  C   C3        1.0  0.02457  0.42958  0.26893  1.0000
  C   C4        1.0  0.97765  0.43010  0.25514  1.0000
  C   C5        1.0  0.47748  0.07377  0.24771  1.0000
  C   C6        1.0  0.52429  0.07391  0.25978  1.0000
  C   C7        1.0  0.97755  0.57392  0.24560  1.0000
  C   C8        1.0  0.02442  0.57371  0.25748  1.0000
  C   C9        1.0  0.52411  0.96584  0.24806  1.0000
  C   C10       1.0  0.47781  0.96580  0.25152  1.0000
  C   C11       1.0  0.02429  0.46546  0.25827  1.0000
  C   C12       1.0  0.97823  0.46596  0.26503  1.0000
  C   C13       1.0  0.47798  0.03790  0.25652  1.0000
  C   C14       1.0  0.52401  0.03806  0.24963  1.0000
  C   C15       1.0  0.97818  0.53811  0.25999  1.0000
  C   C16       1.0  0.02412  0.53778  0.25146  1.0000
  C   C17       1.0  0.54530  0.98481  0.22657  1.0000
  C   C18       1.0  0.45662  0.98452  0.27488  1.0000
  C   C19       1.0  0.04545  0.48409  0.23449  1.0000
  C   C20       1.0  0.95714  0.48502  0.28743  1.0000
  C   C21       1.0  0.45681  0.01900  0.27835  1.0000
  C   C22       1.0  0.54532  0.01932  0.22780  1.0000
  C   C23       1.0  0.95718  0.51951  0.28569  1.0000
  C   C24       1.0  0.04536  0.51862  0.23123  1.0000
  C   C25       1.0  0.72166  0.23010  0.28332  1.0000
  C   C26       1.0  0.28440  0.23239  0.26883  1.0000
  C   C27       1.0  0.21585  0.73586  0.22923  1.0000
  C   C28       1.0  0.78176  0.73067  0.24008  1.0000
  C   C29       1.0  0.28127  0.77321  0.22441  1.0000
  C   C30       1.0  0.71453  0.76580  0.22781  1.0000
  C   C31       1.0  0.78719  0.26674  0.27760  1.0000
  C   C32       1.0  0.21833  0.26753  0.27426  1.0000
  C   C33       1.0  0.74288  0.24211  0.28263  1.0000
  C   C34       1.0  0.26303  0.24371  0.27082  1.0000
  C   C35       1.0  0.23688  0.74806  0.22628  1.0000
  C   C36       1.0  0.75994  0.74167  0.23651  1.0000
  C   C37       1.0  0.26002  0.76127  0.22511  1.0000
  C   C38       1.0  0.73621  0.75418  0.23203  1.0000
  C   C39       1.0  0.76605  0.25505  0.28095  1.0000
  C   C40       1.0  0.23971  0.25616  0.27260  1.0000
  C   C41       1.0  0.62188  0.17170  0.23887  1.0000
  C   C42       1.0  0.38083  0.17648  0.24177  1.0000
  C   C43       1.0  0.11990  0.67711  0.25015  1.0000
  C   C44       1.0  0.87960  0.67561  0.22958  1.0000
  C   C45       1.0  0.38127  0.83149  0.27095  1.0000
  C   C46       1.0  0.61950  0.82564  0.25539  1.0000
  C   C47       1.0  0.88332  0.32631  0.26870  1.0000
  C   C48       1.0  0.11928  0.32801  0.23373  1.0000
  C   C49       1.0  0.50098  0.98380  0.25068  1.0000
  C   C50       1.0  0.00127  0.48373  0.26052  1.0000
  C   C51       1.0  0.50098  0.01996  0.25201  1.0000
  C   C52       1.0  0.00122  0.51993  0.25764  1.0000
  C   C53       1.0  0.50094  0.91317  0.24795  1.0000
  C   C54       1.0  0.00100  0.41308  0.26155  1.0000
  C   C55       1.0  0.50081  0.09070  0.25326  1.0000
  C   C56       1.0  0.00088  0.59062  0.24957  1.0000
  C   C57       1.0  0.52404  0.92646  0.75696  1.0000
  C   C58       1.0  0.47705  0.92580  0.74291  1.0000
  C   C59       1.0  0.02251  0.42579  0.76333  1.0000
  C   C60       1.0  0.97595  0.42729  0.75654  1.0000
  C   C61       1.0  0.47604  0.06982  0.74786  1.0000
  C   C62       1.0  0.52300  0.07032  0.76109  1.0000
  C   C63       1.0  0.97735  0.57124  0.74520  1.0000
  C   C64       1.0  0.02445  0.56996  0.76124  1.0000
  C   C65       1.0  0.52338  0.96233  0.74842  1.0000
  C   C66       1.0  0.47733  0.96165  0.75517  1.0000
  C   C67       1.0  0.02284  0.46172  0.75674  1.0000
  C   C68       1.0  0.97697  0.46316  0.76660  1.0000
  C   C69       1.0  0.47688  0.03392  0.75851  1.0000
  C   C70       1.0  0.52282  0.03448  0.74978  1.0000
  C   C71       1.0  0.97765  0.53541  0.76043  1.0000
  C   C72       1.0  0.02377  0.53405  0.75476  1.0000
  C   C73       1.0  0.54432  0.98150  0.72525  1.0000
  C   C74       1.0  0.45612  0.98017  0.77941  1.0000
  C   C75       1.0  0.04432  0.47998  0.73487  1.0000
  C   C76       1.0  0.95615  0.48277  0.78944  1.0000
  C   C77       1.0  0.45601  0.01467  0.78219  1.0000
  C   C78       1.0  0.54404  0.01600  0.72568  1.0000
  C   C79       1.0  0.95645  0.51727  0.78601  1.0000
  C   C80       1.0  0.04477  0.51449  0.73403  1.0000
  C   C81       1.0  0.71438  0.23506  0.76507  1.0000
  C   C82       1.0  0.28013  0.22443  0.75295  1.0000
  C   C83       1.0  0.21628  0.73110  0.74418  1.0000
  C   C84       1.0  0.78500  0.73385  0.75122  1.0000
  C   C85       1.0  0.28161  0.76837  0.73873  1.0000
  C   C86       1.0  0.71805  0.77003  0.73720  1.0000
  C   C87       1.0  0.78020  0.27123  0.76235  1.0000
  C   C88       1.0  0.21385  0.25977  0.75422  1.0000
  C   C89       1.0  0.73591  0.24685  0.76843  1.0000
  C   C90       1.0  0.25884  0.23550  0.75709  1.0000
  C   C91       1.0  0.23731  0.74311  0.74067  1.0000
  C   C92       1.0  0.76332  0.74563  0.74582  1.0000
  C   C93       1.0  0.26038  0.75636  0.73914  1.0000
  C   C94       1.0  0.73970  0.75849  0.74092  1.0000
  C   C95       1.0  0.75913  0.25968  0.76733  1.0000
  C   C96       1.0  0.23544  0.24803  0.75774  1.0000
  C   C97       1.0  0.61627  0.17310  0.72511  1.0000
  C   C98       1.0  0.37733  0.17202  0.72078  1.0000
  C   C99       1.0  0.11976  0.67388  0.76067  1.0000
  C   C100      1.0  0.88101  0.67550  0.73137  1.0000
  C   C101      1.0  0.38095  0.82687  0.77663  1.0000
  C   C102      1.0  0.62036  0.82515  0.74713  1.0000
  C   C103      1.0  0.87826  0.32762  0.76476  1.0000
  C   C104      1.0  0.11549  0.32283  0.71106  1.0000
  C   C105      1.0  0.50025  0.98000  0.75270  1.0000
  C   C106      1.0  0.00018  0.48047  0.76165  1.0000
  C   C107      1.0  0.50001  0.01619  0.75416  1.0000
  C   C108      1.0  0.00056  0.51669  0.75936  1.0000
  C   C109      1.0  0.50066  0.90929  0.74926  1.0000
  C   C110      1.0  0.99888  0.40975  0.75891  1.0000
  C   C111      1.0  0.49944  0.08683  0.75527  1.0000
  C   C112      1.0  0.00099  0.58737  0.75098  1.0000
  N   N1        1.0  0.62118  0.14502  0.32965  1.0000
  N   N2        1.0  0.38144  0.14572  0.18978  1.0000
  N   N3        1.0  0.11988  0.64710  0.31353  1.0000
  N   N4        1.0  0.88055  0.64478  0.17943  1.0000
  N   N5        1.0  0.38130  0.85673  0.16856  1.0000
  N   N6        1.0  0.61969  0.85644  0.30961  1.0000
  N   N7        1.0  0.88268  0.35523  0.19195  1.0000
  N   N8        1.0  0.11940  0.35356  0.33469  1.0000
  N   N9        1.0  0.61712  0.14686  0.82356  1.0000
  N   N10       1.0  0.37869  0.14121  0.67161  1.0000
  N   N11       1.0  0.11984  0.64397  0.82565  1.0000
  N   N12       1.0  0.88146  0.64472  0.67892  1.0000
  N   N13       1.0  0.38104  0.85316  0.68119  1.0000
  N   N14       1.0  0.61995  0.85564  0.80361  1.0000
  N   N15       1.0  0.87889  0.35636  0.69012  1.0000
  N   N16       1.0  0.11616  0.34876  0.81110  1.0000
  C   C113      1.0  0.54863  0.87383  0.15146  1.0000
  C   C114      1.0  0.54760  0.90084  0.26030  1.0000
  C  Sn1       1.0  0.57203  0.91454  0.39299  1.0000
  C  Sn2       1.0  0.59794  0.90091  0.41681  1.0000
  C   C115      1.0  0.59875  0.87391  0.30715  1.0000
  C   C116      1.0  0.57418  0.86039  0.17482  1.0000
  H   H41       1.0  0.52962  0.86338  0.04900  1.0000
  O  Te1       1.0  0.57062  0.94151  0.50060  1.0000
  O  Te2       1.0  0.62267  0.91414  0.54836  1.0000
  H   H42       1.0  0.57499  0.83949  0.09049  1.0000
  Mg  Mg1       1.0  0.61002  0.95086  0.66166  1.0000
  C   C117      1.0  0.40575  0.90859  0.06524  1.0000
  C   C118      1.0  0.40494  0.87796  0.14911  1.0000
  C  Sn3       1.0  0.42931  0.86358  0.27920  1.0000
  C  Sn4       1.0  0.45495  0.88023  0.32595  1.0000
  C   C119      1.0  0.45554  0.91087  0.24137  1.0000
  C   C120      1.0  0.43102  0.92503  0.11133  1.0000
  H   H43       1.0  0.45081  0.91947  0.96470  1.0000
  O  Te3       1.0  0.42813  0.83297  0.36161  1.0000
  O  Te4       1.0  0.47962  0.86642  0.45557  1.0000
  H   H44       1.0  0.43166  0.94875  0.04651  1.0000
  Mg  Mg2       1.0  0.46735  0.82422  0.53014  1.0000
  C   C121      1.0  0.04801  0.37279  0.16172  1.0000
  C   C122      1.0  0.04725  0.40018  0.26903  1.0000
  C  Sn5       1.0  0.07178  0.41333  0.40338  1.0000
  C  Sn6       1.0  0.09753  0.39874  0.43043  1.0000
  C   C123      1.0  0.09808  0.37135  0.32227  1.0000
  C   C124      1.0  0.07340  0.35838  0.18827  1.0000
  H   H45       1.0  0.02892  0.36276  0.05796  1.0000
  O  Te5       1.0  0.07064  0.44071  0.50943  1.0000
  O  Te6       1.0  0.12237  0.41139  0.56370  1.0000
  H   H46       1.0  0.07400  0.33719  0.10512  1.0000
  Mg  Mg3       1.0  0.11009  0.44900  0.67383  1.0000
  C   C125      1.0  0.94188  0.36194  0.34516  1.0000
  C   C126      1.0  0.91365  0.36862  0.24611  1.0000
  C  Sn7       1.0  0.90487  0.39629  0.12723  1.0000
  C  Sn8       1.0  0.92477  0.41761  0.10740  1.0000
  C   C127      1.0  0.95296  0.41069  0.20701  1.0000
  C   C128      1.0  0.96152  0.38294  0.32564  1.0000
  H   H47       1.0  0.94850  0.34046  0.43687  1.0000
  O  Te7       1.0  0.87658  0.40261  0.02934  1.0000
  O  Te8       1.0  0.98060  0.44534  0.98948  1.0000
  H   H48       1.0  0.98338  0.37776  0.40222  1.0000
  Mg  Mg4       1.0  0.93969  0.44351  0.88571  1.0000
  C   C129      1.0  0.45288  0.12972  0.35474  1.0000
  C   C130      1.0  0.45417  0.10029  0.26278  1.0000
  C  Sn9       1.0  0.43006  0.08651  0.12711  1.0000
  C  Sn10      1.0  0.40422  0.10255  0.08295  1.0000
  C   C131      1.0  0.40315  0.13200  0.17566  1.0000
  C   C132      1.0  0.42740  0.14557  0.31123  1.0000
  H   H49       1.0  0.47165  0.14023  0.45957  1.0000
  O  Te9       1.0  0.43171  0.05708  0.03661  1.0000
  O  Te10      1.0  0.44383  0.08923  0.94789  1.0000
  H   H50       1.0  0.42640  0.16837  0.38232  1.0000
  Mg  Mg5       1.0  0.45674  0.04865  0.86294  1.0000
  C   C133      1.0  0.58304  0.08570  0.43203  1.0000
  C   C134      1.0  0.55507  0.09176  0.31990  1.0000
  C  Sn11      1.0  0.54729  0.11769  0.18977  1.0000
  C  Sn12      1.0  0.56794  0.13790  0.17185  1.0000
  C   C135      1.0  0.59586  0.13162  0.28459  1.0000
  C   C136      1.0  0.60342  0.10561  0.41439  1.0000
  H   H51       1.0  0.58888  0.06557  0.53240  1.0000
  O  Te11      1.0  0.51925  0.12341  0.07891  1.0000
  O  Te12      1.0  0.56074  0.16397  0.04287  1.0000
  H   H52       1.0  0.62507  0.10091  0.50110  1.0000
  Mg  Mg6       1.0  0.58382  0.16184  0.92339  1.0000
  C   C137      1.0  0.95228  0.63023  0.34497  1.0000
  C   C138      1.0  0.95390  0.60045  0.25675  1.0000
  C  Sn13      1.0  0.92996  0.58602  0.12272  1.0000
  C  Sn14      1.0  0.90394  0.60175  0.07642  1.0000
  C   C139      1.0  0.90253  0.63155  0.16538  1.0000
  C   C140      1.0  0.92662  0.64577  0.29933  1.0000
  H   H53       1.0  0.97091  0.64124  0.44854  1.0000
  O  Te13      1.0  0.93195  0.55626  0.03598  1.0000
  O  Te14      1.0  0.94371  0.58779  0.94293  1.0000
  H   H54       1.0  0.92536  0.66883  0.36753  1.0000
  Mg  Mg7       1.0  0.95708  0.54695  0.86320  1.0000
  C   C141      1.0  0.09562  0.59717  0.43546  1.0000
  C   C142      1.0  0.09686  0.62375  0.32496  1.0000
  C  Sn15      1.0  0.07258  0.63680  0.18704  1.0000
  C  Sn16      1.0  0.04661  0.62294  0.15960  1.0000
  C   C143      1.0  0.04559  0.59636  0.27097  1.0000
  C   C144      1.0  0.07001  0.58349  0.40854  1.0000
  H   H55       1.0  0.11451  0.58721  0.54198  1.0000
  O  Te15      1.0  0.07419  0.66336  0.07782  1.0000
  O  Te16      1.0  0.02203  0.63551  0.02280  1.0000
  H   H56       1.0  0.06905  0.56292  0.49416  1.0000
  Mg  Mg8       1.0  0.09897  0.67178  0.90920  1.0000
  C   C145      1.0  0.69457  0.17917  0.39141  1.0000
  C   C146      1.0  0.69798  0.20721  0.29756  1.0000
  C  Sn17      1.0  0.67504  0.22623  0.18331  1.0000
  C  Sn18      1.0  0.64821  0.21696  0.16296  1.0000
  C   C147      1.0  0.64503  0.18888  0.25755  1.0000
  C   C148      1.0  0.66813  0.17002  0.37147  1.0000
  H   H57       1.0  0.71245  0.16458  0.47964  1.0000
  O  Te17      1.0  0.67881  0.25416  0.09050  1.0000
  O  Te18      1.0  0.62493  0.23554  0.04971  1.0000
  H   H58       1.0  0.66549  0.14833  0.44421  1.0000
  Mg  Mg9       1.0  0.70471  0.27142  0.95191  1.0000
  C   C149      1.0  0.32458  0.17006  0.19254  1.0000
  C   C150      1.0  0.34965  0.18576  0.22441  1.0000
  C  Sn19      1.0  0.35442  0.21915  0.28579  1.0000
  C  Sn20      1.0  0.33367  0.23710  0.31574  1.0000
  C   C151      1.0  0.30867  0.22117  0.28357  1.0000
  C   C152      1.0  0.30411  0.18774  0.22211  1.0000
  H   H59       1.0  0.32105  0.14420  0.14508  1.0000
  O  Te19      1.0  0.37958  0.23446  0.31689  1.0000
  O  Te20      1.0  0.33790  0.27050  0.37712  1.0000
  H   H60       1.0  0.28471  0.17559  0.19756  1.0000
  Mg  Mg10      1.0  0.37559  0.28041  0.39999  1.0000
  C   C153      1.0  0.17770  0.67376  0.32828  1.0000
  C   C154      1.0  0.15124  0.68751  0.27354  1.0000
  C  Sn21      1.0  0.14492  0.71915  0.18882  1.0000
  C  Sn22      1.0  0.16550  0.73730  0.15849  1.0000
  C   C155      1.0  0.19190  0.72332  0.21364  1.0000
  C   C156      1.0  0.19801  0.69164  0.29835  1.0000
  H   H61       1.0  0.18242  0.64925  0.39373  1.0000
  O  Te21      1.0  0.11838  0.73252  0.13505  1.0000
  O  Te22      1.0  0.15973  0.76897  0.07406  1.0000
  H   H62       1.0  0.21849  0.68099  0.34061  1.0000
  Mg  Mg11      1.0  0.12054  0.77657  0.02535  1.0000
  C   C157      1.0  0.83811  0.73773  0.30796  1.0000
  C   C158      1.0  0.81179  0.72338  0.24733  1.0000
  C  Sn23      1.0  0.80729  0.69009  0.18410  1.0000
  C  Sn24      1.0  0.82959  0.67086  0.18174  1.0000
  C   C159      1.0  0.85584  0.68543  0.24281  1.0000
  C   C160      1.0  0.86011  0.71877  0.30575  1.0000
  H   H63       1.0  0.84142  0.76352  0.35675  1.0000
  O  Te23      1.0  0.78087  0.67616  0.12396  1.0000
  O  Te24      1.0  0.82567  0.63753  0.11931  1.0000
  H   H64       1.0  0.88050  0.72986  0.35279  1.0000
  Mg  Mg12      1.0  0.78587  0.62974  0.05130  1.0000
  C   C161      1.0  0.35267  0.78028  0.36979  1.0000
  C   C162      1.0  0.35637  0.80803  0.27533  1.0000
  C  Sn25      1.0  0.33358  0.82694  0.15806  1.0000
  C  Sn26      1.0  0.30660  0.81784  0.13527  1.0000
  C   C163      1.0  0.30312  0.79005  0.23049  1.0000
  C   C164      1.0  0.32607  0.77129  0.34745  1.0000
  H   H65       1.0  0.37043  0.76578  0.46036  1.0000
  O  Te25      1.0  0.33765  0.85459  0.06468  1.0000
  O  Te26      1.0  0.28346  0.83631  0.01898  1.0000
  H   H66       1.0  0.32320  0.74982  0.42066  1.0000
  Mg  Mg13      1.0  0.36365  0.87180  0.92156  1.0000
  C   C165      1.0  0.64538  0.77029  0.16247  1.0000
  C   C166      1.0  0.64310  0.80141  0.23681  1.0000
  C  Sn27      1.0  0.66547  0.82372  0.30237  1.0000
  C  Sn28      1.0  0.69057  0.81463  0.29309  1.0000
  C   C167      1.0  0.69265  0.78344  0.21834  1.0000
  C   C168      1.0  0.67013  0.76131  0.15320  1.0000
  H   H67       1.0  0.62796  0.75318  0.11196  1.0000
  O  Te27      1.0  0.66284  0.85470  0.37629  1.0000
  O  Te28      1.0  0.71325  0.83644  0.35755  1.0000
  H   H68       1.0  0.67190  0.73723  0.09553  1.0000
  Mg  Mg14      1.0  0.69954  0.87585  0.44632  1.0000
  C   C169      1.0  0.81218  0.31925  0.16577  1.0000
  C   C170      1.0  0.80950  0.28801  0.23727  1.0000
  C  Sn29      1.0  0.83284  0.26805  0.33327  1.0000
  C  Sn30      1.0  0.85933  0.27966  0.35799  1.0000
  C   C171      1.0  0.86180  0.31096  0.28604  1.0000
  C   C172      1.0  0.83831  0.33072  0.19014  1.0000
  H   H69       1.0  0.79401  0.33455  0.09166  1.0000
  O  Te29      1.0  0.82978  0.23690  0.40375  1.0000
  O  Te30      1.0  0.88300  0.26023  0.45344  1.0000
  H   H70       1.0  0.84040  0.35492  0.13490  1.0000
  Mg  Mg15      1.0  0.86822  0.21956  0.52370  1.0000
  C   C173      1.0  0.17874  0.32514  0.39045  1.0000
  C   C174      1.0  0.15127  0.31719  0.27544  1.0000
  C  Sn31      1.0  0.14514  0.28905  0.16006  1.0000
  C  Sn32      1.0  0.16697  0.26855  0.16015  1.0000
  C   C175      1.0  0.19439  0.27671  0.27581  1.0000
  C   C176      1.0  0.20029  0.30492  0.39068  1.0000
  H   H71       1.0  0.18331  0.34697  0.47940  1.0000
  O  Te31      1.0  0.11758  0.28147  0.04597  1.0000
  O  Te32      1.0  0.16143  0.24027  0.04626  1.0000
  H   H72       1.0  0.22156  0.31107  0.47979  1.0000
  Mg  Mg16      1.0  0.18456  0.24023  0.91535  1.0000
  C   C177      1.0  0.58305  0.91446  0.92417  1.0000
  C   C178      1.0  0.55529  0.91106  0.79993  1.0000
  C  Sn33      1.0  0.54719  0.88519  0.66950  1.0000
  C  Sn34      1.0  0.56730  0.86233  0.66370  1.0000
  C   C179      1.0  0.59502  0.86594  0.78868  1.0000
  C   C180      1.0  0.60289  0.89192  0.91860  1.0000
  H   H73       1.0  0.52511  0.93464  0.02476  1.0000
  O  Te33      1.0  0.51937  0.88217  0.54635  1.0000
  O  Te34      1.0  0.55977  0.83624  0.53480  1.0000
  H   H74       1.0  0.56035  0.89462  0.01485  1.0000
  Mg  Mg17      1.0  0.51931  0.84251  0.39601  1.0000
  C   C181      1.0  0.40557  0.90422  0.57236  1.0000
  C   C182      1.0  0.40470  0.87415  0.66062  1.0000
  C  Sn35      1.0  0.42908  0.85995  0.79172  1.0000
  C  Sn36      1.0  0.45477  0.87622  0.83503  1.0000
  C   C183      1.0  0.45541  0.90632  0.74607  1.0000
  C   C184      1.0  0.43090  0.92030  0.61505  1.0000
  H   H75       1.0  0.38660  0.91505  0.47106  1.0000
  O  Te35      1.0  0.42784  0.82988  0.87855  1.0000
  O  Te36      1.0  0.47945  0.86259  0.96557  1.0000
  H   H76       1.0  0.43157  0.94360  0.54683  1.0000
  Mg  Mg18      1.0  0.40306  0.82126  0.04667  1.0000
  C   C185      1.0  0.05693  0.35765  0.65459  1.0000
  C   C186      1.0  0.08526  0.36278  0.75871  1.0000
  C  Sn37      1.0  0.09451  0.38919  0.88559  1.0000
  C  Sn38      1.0  0.07499  0.41083  0.90837  1.0000
  C   C187      1.0  0.04669  0.40548  0.80363  1.0000
  C   C188      1.0  0.03765  0.37898  0.67702  1.0000
  H   H77       1.0  0.04994  0.33713  0.55670  1.0000
  O  Te37      1.0  0.12289  0.39396  0.98845  1.0000
  O  Te38      1.0  0.01963  0.43751  0.03424  1.0000
  H   H78       1.0  0.01572  0.37500  0.59650  1.0000
  Mg  Mg19      1.0  0.06050  0.43377  0.14248  1.0000
  C   C189      1.0  0.90426  0.40700  0.58349  1.0000
  C   C190      1.0  0.90291  0.37707  0.67127  1.0000
  C  Sn39      1.0  0.92698  0.36277  0.80514  1.0000
  C  Sn40      1.0  0.95286  0.37880  0.85174  1.0000
  C   C191      1.0  0.95399  0.40875  0.76322  1.0000
  C   C192      1.0  0.92977  0.42284  0.62942  1.0000
  H   H79       1.0  0.88553  0.41791  0.48003  1.0000
  O  Te39      1.0  0.92526  0.33284  0.89145  1.0000
  O  Te40      1.0  0.97724  0.36506  0.98509  1.0000
  H   H80       1.0  0.93082  0.44603  0.56157  1.0000
  Mg  Mg20      1.0  0.90022  0.32400  0.06419  1.0000
  C   C193      1.0  0.40420  0.09029  0.56606  1.0000
  C   C194      1.0  0.40227  0.11812  0.66688  1.0000
  C  Sn41      1.0  0.42622  0.13330  0.79669  1.0000
  C  Sn42      1.0  0.45256  0.12032  0.82578  1.0000
  C   C195      1.0  0.45427  0.09249  0.72412  1.0000
  C   C196      1.0  0.43018  0.07748  0.59461  1.0000
  H   H81       1.0  0.38556  0.07869  0.46578  1.0000
  O  Te41      1.0  0.42391  0.16107  0.89628  1.0000
  O  Te42      1.0  0.47682  0.13502  0.95461  1.0000
  H   H82       1.0  0.43168  0.05595  0.51649  1.0000
  Mg  Mg21      1.0  0.39893  0.17248  0.05646  1.0000
  C   C197      1.0  0.59406  0.09403  0.93193  1.0000
  C   C198      1.0  0.59453  0.12224  0.82887  1.0000
  C  Sn43      1.0  0.56981  0.13606  0.69966  1.0000
  C  Sn44      1.0  0.54418  0.12132  0.67347  1.0000
  C   C199      1.0  0.54394  0.09312  0.77735  1.0000
  C   C200      1.0  0.56880  0.07949  0.90624  1.0000
  H   H83       1.0  0.54926  0.08358  0.03173  1.0000
  O  Te43      1.0  0.57064  0.16423  0.59780  1.0000
  O  Te44      1.0  0.51917  0.13463  0.54530  1.0000
  H   H84       1.0  0.56843  0.05766  0.98610  1.0000
  Mg  Mg22      1.0  0.53104  0.17321  0.43961  1.0000
  C   C201      1.0  0.95294  0.62905  0.83945  1.0000
  C   C202      1.0  0.95410  0.59889  0.75269  1.0000
  C  Sn45      1.0  0.92989  0.58451  0.62122  1.0000
  C  Sn46      1.0  0.90407  0.60068  0.57602  1.0000
  C   C203      1.0  0.90312  0.63085  0.66350  1.0000
  C   C204      1.0  0.92748  0.64502  0.79489  1.0000
  H   H85       1.0  0.97178  0.64002  0.94104  1.0000
  O  Te45      1.0  0.93143  0.55437  0.53591  1.0000
  O  Te46      1.0  0.87956  0.58686  0.44508  1.0000
  H   H86       1.0  0.92657  0.66837  0.86196  1.0000
  Mg  Mg23      1.0  0.89232  0.54540  0.36653  1.0000
  C   C205      1.0  0.06096  0.63630  0.66287  1.0000
  C   C206      1.0  0.08870  0.63298  0.78768  1.0000
  C  Sn47      1.0  0.09708  0.60620  0.91265  1.0000
  C  Sn48      1.0  0.07726  0.58232  0.91229  1.0000
  C   C207      1.0  0.04956  0.58585  0.78678  1.0000
  C   C208      1.0  0.04140  0.61276  0.66237  1.0000
  H   H87       1.0  0.05465  0.65711  0.56654  1.0000
  O  Te47      1.0  0.06085  0.60336  0.03646  1.0000
  O  Te48      1.0  0.02103  0.55539  0.03564  1.0000
  H   H88       1.0  0.01992  0.61531  0.56567  1.0000
  Mg  Mg24      1.0  0.06136  0.56220  0.17782  1.0000
  C   C209      1.0  0.64322  0.22632  0.62766  1.0000
  C   C210      1.0  0.64028  0.19588  0.70533  1.0000
  C  Sn49      1.0  0.66364  0.17769  0.82118  1.0000
  C  Sn50      1.0  0.69043  0.19027  0.85978  1.0000
  C   C211      1.0  0.69315  0.22076  0.78150  1.0000
  C   C212      1.0  0.66963  0.23876  0.66571  1.0000
  H   H89       1.0  0.62502  0.24026  0.53815  1.0000
  O  Te49      1.0  0.66033  0.14731  0.89757  1.0000
  O  Te50      1.0  0.71413  0.17260  0.97515  1.0000
  H   H90       1.0  0.67192  0.26234  0.60569  1.0000
  Mg  Mg25      1.0  0.63489  0.13249  0.04628  1.0000
  C   C213      1.0  0.30775  0.17141  0.66373  1.0000
  C   C214      1.0  0.30395  0.20230  0.73401  1.0000
  C  Sn51      1.0  0.32507  0.22636  0.79419  1.0000
  C  Sn52      1.0  0.35042  0.21931  0.78358  1.0000
  C   C215      1.0  0.35401  0.18835  0.71292  1.0000
  C   C216      1.0  0.33275  0.16444  0.65315  1.0000
  H   H91       1.0  0.29130  0.15292  0.61738  1.0000
  O  Te51      1.0  0.32094  0.25709  0.86410  1.0000
  O  Te52      1.0  0.37186  0.24292  0.84269  1.0000
  H   H92       1.0  0.33568  0.14054  0.59863  1.0000
  Mg  Mg26      1.0  0.35633  0.28115  0.92742  1.0000
  C   C217      1.0  0.19037  0.67791  0.84491  1.0000
  C   C218      1.0  0.19304  0.70782  0.76174  1.0000
  C  Sn53      1.0  0.17044  0.72956  0.67973  1.0000
  C  Sn54      1.0  0.14471  0.72113  0.68128  1.0000
  C   C219      1.0  0.14225  0.69115  0.76495  1.0000
  C   C220      1.0  0.16500  0.66958  0.84655  1.0000
  H   H93       1.0  0.20798  0.66123  0.90814  1.0000
  O  Te53      1.0  0.17346  0.75933  0.59719  1.0000
  O  Te54      1.0  0.12178  0.74240  0.60038  1.0000
  H   H94       1.0  0.16293  0.64644  0.91104  1.0000
  Mg  Mg27      1.0  0.13621  0.78013  0.50503  1.0000
  C   C221      1.0  0.85353  0.73123  0.80517  1.0000
  C   C222      1.0  0.85764  0.69805  0.76282  1.0000
  C  Sn55      1.0  0.83580  0.67497  0.70410  1.0000
  C  Sn56      1.0  0.80939  0.68538  0.68757  1.0000
  C   C223      1.0  0.80549  0.71863  0.73015  1.0000
  C   C224      1.0  0.82749  0.74151  0.78884  1.0000
  H   H95       1.0  0.87055  0.74894  0.85048  1.0000
  O  Te55      1.0  0.84026  0.64192  0.66241  1.0000
  O  Te56      1.0  0.78720  0.66283  0.62913  1.0000
  H   H96       1.0  0.82430  0.76721  0.82151  1.0000
  Mg  Mg28      1.0  0.80357  0.62049  0.58840  1.0000
  C   C225      1.0  0.33971  0.76689  0.86825  1.0000
  C   C226      1.0  0.31256  0.77889  0.77999  1.0000
  C  Sn57      1.0  0.30675  0.80813  0.67276  1.0000
  C  Sn58      1.0  0.32858  0.82561  0.65376  1.0000
  C   C227      1.0  0.35567  0.81338  0.74251  1.0000
  C   C228      1.0  0.36124  0.78411  0.84953  1.0000
  H   H97       1.0  0.34402  0.74423  0.95097  1.0000
  O  Te57      1.0  0.27951  0.81978  0.58558  1.0000
  O  Te58      1.0  0.32336  0.85488  0.54737  1.0000
  H   H98       1.0  0.38227  0.77481  0.91775  1.0000
  Mg  Mg29      1.0  0.28282  0.86080  0.45551  1.0000
  C   C229      1.0  0.64877  0.77087  0.66668  1.0000
  C   C230      1.0  0.64500  0.80198  0.73499  1.0000
  C  Sn59      1.0  0.66648  0.82554  0.79989  1.0000
  C  Sn60      1.0  0.69220  0.81774  0.79610  1.0000
  C   C231      1.0  0.69576  0.78656  0.72736  1.0000
  C   C232      1.0  0.67412  0.76317  0.66282  1.0000
  H   H99       1.0  0.63203  0.75278  0.61664  1.0000
  O  Te59      1.0  0.66237  0.85649  0.86775  1.0000
  O  Te60      1.0  0.71401  0.84083  0.86003  1.0000
  H   H100      1.0  0.67705  0.73910  0.60983  1.0000
  Mg  Mg30      1.0  0.69834  0.87964  0.93951  1.0000
  C   C233      1.0  0.83730  0.26667  0.85284  1.0000
  C   C234      1.0  0.81076  0.28060  0.78866  1.0000
  C  Sn61      1.0  0.80494  0.31164  0.69738  1.0000
  C  Sn62      1.0  0.82612  0.32899  0.67000  1.0000
  C   C235      1.0  0.85260  0.31484  0.73461  1.0000
  C   C236      1.0  0.85820  0.28377  0.82583  1.0000
  H   H101      1.0  0.84163  0.24262  0.92333  1.0000
  O  Te61      1.0  0.77831  0.32520  0.63420  1.0000
  O  Te62      1.0  0.82087  0.36005  0.57915  1.0000
  H   H102      1.0  0.87875  0.27298  0.87540  1.0000
  Mg  Mg31      1.0  0.78131  0.36821  0.51840  1.0000
  C   C237      1.0  0.15553  0.25994  0.62475  1.0000
  C   C238      1.0  0.18295  0.27090  0.71379  1.0000
  C  Sn63      1.0  0.18936  0.30023  0.82030  1.0000
  C  Sn64      1.0  0.16788  0.31889  0.83778  1.0000
  C   C239      1.0  0.14052  0.30770  0.74825  1.0000
  C   C240      1.0  0.13434  0.27831  0.64196  1.0000
  H   H103      1.0  0.15074  0.23720  0.54259  1.0000
  O  Te63      1.0  0.21686  0.31083  0.90829  1.0000
  O  Te64      1.0  0.17371  0.34829  0.94343  1.0000
  H   H104      1.0  0.11311  0.26982  0.57313  1.0000
  Mg  Mg32      1.0  0.15037  0.35259  0.03685  1.0000
