data_image0
_chemical_formula_structural       H40C112N16SnCSn2CSnTe4Mg2SnCSn2CSnTe4Mg2SnCSn2CSnTe4Mg2SnCSn2CSnTe4Mg2SnCSn2CSnTe4Mg2SnCSn2CSnTe4Mg2SnCSn2CSnTe4Mg2SnCSn2CSnTe4Mg2SnCSn2CSnTe4Mg2SnCSn2CSnTe4Mg2SnCSn2CSnTe4Mg2SnCSn2CSnTe4Mg2SnCSn2CSnTe4Mg2SnCSn2CSnTe4Mg2SnCSn2CSnTe4Mg2SnCSn2CSnTe4Mg2SnCSn2CSnTe4Mg2SnCSn2CSnTe4Mg2SnCSn2CSnTe4Mg2SnCSn2CSnTe4Mg2SnCSn2CSnTe4Mg2SnCSn2CSnTe4Mg2SnCSn2CSnTe4Mg2SnCSn2CSnTe4Mg2SnCSn2CSnTe4Mg2SnCSn2CSnTe4Mg2SnCSn2CSnTe4Mg2SnCSn2CSnTe4Mg2SnCSn2CSnTe4Mg2SnCSn2CSnTe4Mg2SnCSn2CSnTe4Mg2SnCSn2CSnTe4Mg2
_chemical_formula_sum              "H40 C176 N16 Sn128 Te128 Mg64"
_cell_length_a       53.3663
_cell_length_b       39.6086
_cell_length_c       8.03925
_cell_angle_alpha    90.0134
_cell_angle_beta     115.154
_cell_angle_gamma    89.91

_symmetry_space_group_name_H-M    'P1'
_space_group_IT_number       1

loop_
  _space_group_symop_operation_xyz
  'x, y, z'

loop_
  _atom_site_type_symbol
  _atom_site_label
  _atom_site_symmetry_multiplicity
  _atom_site_fract_x
  _atom_site_fract_y
  _atom_site_fract_z
  _atom_site_occupancy
  H   H1        1.0  0.56126  0.97127  0.20371  1.0000
  H   H2        1.0  0.44050  0.97085  0.29510  1.0000
  H   H3        1.0  0.06147  0.47027  0.21345  1.0000
  H   H4        1.0  0.94112  0.47160  0.31020  1.0000
  H   H5        1.0  0.44099  0.03257  0.30265  1.0000
  H   H6        1.0  0.56146  0.03301  0.20781  1.0000
  H   H7        1.0  0.94121  0.53329  0.30748  1.0000
  H   H8        1.0  0.06138  0.53201  0.20831  1.0000
  H   H9        1.0  0.60312  0.18526  0.14589  1.0000
  H   H10       1.0  0.39883  0.19341  0.28458  1.0000
  H   H11       1.0  0.10127  0.69315  0.19490  1.0000
  H   H12       1.0  0.89748  0.69276  0.27189  1.0000
  H   H13       1.0  0.40030  0.82007  0.37440  1.0000
  H   H14       1.0  0.60121  0.80920  0.21491  1.0000
  H   H15       1.0  0.90257  0.31193  0.34200  1.0000
  H   H16       1.0  0.10022  0.31675  0.12982  1.0000
  H   H17       1.0  0.50086  0.88569  0.24682  1.0000
  H   H18       1.0  0.00080  0.38563  0.26062  1.0000
  H   H19       1.0  0.50068  0.11817  0.25323  1.0000
  H   H20       1.0  0.00080  0.61809  0.24741  1.0000
  H   H21       1.0  0.56034  0.96812  0.70221  1.0000
  H   H22       1.0  0.44017  0.96628  0.80054  1.0000
  H   H23       1.0  0.06015  0.46586  0.71329  1.0000
  H   H24       1.0  0.94011  0.46979  0.81384  1.0000
  H   H25       1.0  0.44014  0.02798  0.80729  1.0000
  H   H26       1.0  0.55984  0.02988  0.70283  1.0000
  H   H27       1.0  0.94064  0.53152  0.80728  1.0000
  H   H28       1.0  0.06092  0.52759  0.71139  1.0000
  H   H29       1.0  0.59689  0.18463  0.62627  1.0000
  H   H30       1.0  0.39494  0.18960  0.76405  1.0000
  H   H31       1.0  0.10116  0.68995  0.70357  1.0000
  H   H32       1.0  0.89904  0.69241  0.77339  1.0000
  H   H33       1.0  0.39994  0.81392  0.87106  1.0000
  H   H34       1.0  0.60219  0.80841  0.70049  1.0000
  H   H35       1.0  0.89689  0.31211  0.83762  1.0000
  H   H36       1.0  0.09610  0.31155  0.61091  1.0000
  H   H37       1.0  0.50085  0.88181  0.74764  1.0000
  H   H38       1.0  0.99821  0.38229  0.75663  1.0000
  H   H39       1.0  0.49927  0.11429  0.75616  1.0000
  H   H40       1.0  0.00125  0.61484  0.74815  1.0000
  C   C1        1.0  0.52460  0.92996  0.25808  1.0000
  C   C2        1.0  0.47733  0.92999  0.23898  1.0000
  C   C3        1.0  0.02457  0.42958  0.26893  1.0000
  C   C4        1.0  0.97765  0.43010  0.25514  1.0000
  C   C5        1.0  0.47748  0.07377  0.24771  1.0000
  C   C6        1.0  0.52429  0.07391  0.25978  1.0000
  C   C7        1.0  0.97755  0.57392  0.24560  1.0000
  C   C8        1.0  0.02442  0.57371  0.25748  1.0000
  C   C9        1.0  0.52411  0.96584  0.24806  1.0000
  C   C10       1.0  0.47781  0.96580  0.25152  1.0000
  C   C11       1.0  0.02429  0.46546  0.25827  1.0000
  C   C12       1.0  0.97823  0.46596  0.26503  1.0000
  C   C13       1.0  0.47798  0.03790  0.25652  1.0000
  C   C14       1.0  0.52401  0.03806  0.24963  1.0000
  C   C15       1.0  0.97818  0.53811  0.25999  1.0000
  C   C16       1.0  0.02412  0.53778  0.25146  1.0000
  C   C17       1.0  0.54530  0.98481  0.22657  1.0000
  C   C18       1.0  0.45662  0.98452  0.27488  1.0000
  C   C19       1.0  0.04545  0.48409  0.23449  1.0000
  C   C20       1.0  0.95714  0.48502  0.28743  1.0000
  C   C21       1.0  0.45681  0.01900  0.27835  1.0000
  C   C22       1.0  0.54532  0.01932  0.22780  1.0000
  C   C23       1.0  0.95718  0.51951  0.28569  1.0000
  C   C24       1.0  0.04536  0.51862  0.23123  1.0000
  C   C25       1.0  0.72166  0.23010  0.28332  1.0000
  C   C26       1.0  0.28440  0.23239  0.26883  1.0000
  C   C27       1.0  0.21585  0.73586  0.22923  1.0000
  C   C28       1.0  0.78176  0.73067  0.24008  1.0000
  C   C29       1.0  0.28127  0.77321  0.22441  1.0000
  C   C30       1.0  0.71453  0.76580  0.22781  1.0000
  C   C31       1.0  0.78719  0.26674  0.27760  1.0000
  C   C32       1.0  0.21833  0.26753  0.27426  1.0000
  C   C33       1.0  0.74288  0.24211  0.28263  1.0000
  C   C34       1.0  0.26303  0.24371  0.27082  1.0000
  C   C35       1.0  0.23688  0.74806  0.22628  1.0000
  C   C36       1.0  0.75994  0.74167  0.23651  1.0000
  C   C37       1.0  0.26002  0.76127  0.22511  1.0000
  C   C38       1.0  0.73621  0.75418  0.23203  1.0000
  C   C39       1.0  0.76605  0.25505  0.28095  1.0000
  C   C40       1.0  0.23971  0.25616  0.27260  1.0000
  C   C41       1.0  0.62188  0.17170  0.23887  1.0000
  C   C42       1.0  0.38083  0.17648  0.24177  1.0000
  C   C43       1.0  0.11990  0.67711  0.25015  1.0000
  C   C44       1.0  0.87960  0.67561  0.22958  1.0000
  C   C45       1.0  0.38127  0.83149  0.27095  1.0000
  C   C46       1.0  0.61950  0.82564  0.25539  1.0000
  C   C47       1.0  0.88332  0.32631  0.26870  1.0000
  C   C48       1.0  0.11928  0.32801  0.23373  1.0000
  C   C49       1.0  0.50098  0.98380  0.25068  1.0000
  C   C50       1.0  0.00127  0.48373  0.26052  1.0000
  C   C51       1.0  0.50098  0.01996  0.25201  1.0000
  C   C52       1.0  0.00122  0.51993  0.25764  1.0000
  C   C53       1.0  0.50094  0.91317  0.24795  1.0000
  C   C54       1.0  0.00100  0.41308  0.26155  1.0000
  C   C55       1.0  0.50081  0.09070  0.25326  1.0000
  C   C56       1.0  0.00088  0.59062  0.24957  1.0000
  C   C57       1.0  0.52404  0.92646  0.75696  1.0000
  C   C58       1.0  0.47705  0.92580  0.74291  1.0000
  C   C59       1.0  0.02251  0.42579  0.76333  1.0000
  C   C60       1.0  0.97595  0.42729  0.75654  1.0000
  C   C61       1.0  0.47604  0.06982  0.74786  1.0000
  C   C62       1.0  0.52300  0.07032  0.76109  1.0000
  C   C63       1.0  0.97735  0.57124  0.74520  1.0000
  C   C64       1.0  0.02445  0.56996  0.76124  1.0000
  C   C65       1.0  0.52338  0.96233  0.74842  1.0000
  C   C66       1.0  0.47733  0.96165  0.75517  1.0000
  C   C67       1.0  0.02284  0.46172  0.75674  1.0000
  C   C68       1.0  0.97697  0.46316  0.76660  1.0000
  C   C69       1.0  0.47688  0.03392  0.75851  1.0000
  C   C70       1.0  0.52282  0.03448  0.74978  1.0000
  C   C71       1.0  0.97765  0.53541  0.76043  1.0000
  C   C72       1.0  0.02377  0.53405  0.75476  1.0000
  C   C73       1.0  0.54432  0.98150  0.72525  1.0000
  C   C74       1.0  0.45612  0.98017  0.77941  1.0000
  C   C75       1.0  0.04432  0.47998  0.73487  1.0000
  C   C76       1.0  0.95615  0.48277  0.78944  1.0000
  C   C77       1.0  0.45601  0.01467  0.78219  1.0000
  C   C78       1.0  0.54404  0.01600  0.72568  1.0000
  C   C79       1.0  0.95645  0.51727  0.78601  1.0000
  C   C80       1.0  0.04477  0.51449  0.73403  1.0000
  C   C81       1.0  0.71438  0.23506  0.76507  1.0000
  C   C82       1.0  0.28013  0.22443  0.75295  1.0000
  C   C83       1.0  0.21628  0.73110  0.74418  1.0000
  C   C84       1.0  0.78500  0.73385  0.75122  1.0000
  C   C85       1.0  0.28161  0.76837  0.73873  1.0000
  C   C86       1.0  0.71805  0.77003  0.73720  1.0000
  C   C87       1.0  0.78020  0.27123  0.76235  1.0000
  C   C88       1.0  0.21385  0.25977  0.75422  1.0000
  C   C89       1.0  0.73591  0.24685  0.76843  1.0000
  C   C90       1.0  0.25884  0.23550  0.75709  1.0000
  C   C91       1.0  0.23731  0.74311  0.74067  1.0000
  C   C92       1.0  0.76332  0.74563  0.74582  1.0000
  C   C93       1.0  0.26038  0.75636  0.73914  1.0000
  C   C94       1.0  0.73970  0.75849  0.74092  1.0000
  C   C95       1.0  0.75913  0.25968  0.76733  1.0000
  C   C96       1.0  0.23544  0.24803  0.75774  1.0000
  C   C97       1.0  0.61627  0.17310  0.72511  1.0000
  C   C98       1.0  0.37733  0.17202  0.72078  1.0000
  C   C99       1.0  0.11976  0.67388  0.76067  1.0000
  C   C100      1.0  0.88101  0.67550  0.73137  1.0000
  C   C101      1.0  0.38095  0.82687  0.77663  1.0000
  C   C102      1.0  0.62036  0.82515  0.74713  1.0000
  C   C103      1.0  0.87826  0.32762  0.76476  1.0000
  C   C104      1.0  0.11549  0.32283  0.71106  1.0000
  C   C105      1.0  0.50025  0.98000  0.75270  1.0000
  C   C106      1.0  0.00018  0.48047  0.76165  1.0000
  C   C107      1.0  0.50001  0.01619  0.75416  1.0000
  C   C108      1.0  0.00056  0.51669  0.75936  1.0000
  C   C109      1.0  0.50066  0.90929  0.74926  1.0000
  C   C110      1.0  0.99888  0.40975  0.75891  1.0000
  C   C111      1.0  0.49944  0.08683  0.75527  1.0000
  C   C112      1.0  0.00099  0.58737  0.75098  1.0000
  N   N1        1.0  0.62118  0.14502  0.32965  1.0000
  N   N2        1.0  0.38144  0.14572  0.18978  1.0000
  N   N3        1.0  0.11988  0.64710  0.31353  1.0000
  N   N4        1.0  0.88055  0.64478  0.17943  1.0000
  N   N5        1.0  0.38130  0.85673  0.16856  1.0000
  N   N6        1.0  0.61969  0.85644  0.30961  1.0000
  N   N7        1.0  0.88268  0.35523  0.19195  1.0000
  N   N8        1.0  0.11940  0.35356  0.33469  1.0000
  N   N9        1.0  0.61712  0.14686  0.82356  1.0000
  N   N10       1.0  0.37869  0.14121  0.67161  1.0000
  N   N11       1.0  0.11984  0.64397  0.82565  1.0000
  N   N12       1.0  0.88146  0.64472  0.67892  1.0000
  N   N13       1.0  0.38104  0.85316  0.68119  1.0000
  N   N14       1.0  0.61995  0.85564  0.80361  1.0000
  N   N15       1.0  0.87889  0.35636  0.69012  1.0000
  N   N16       1.0  0.11616  0.34876  0.81110  1.0000
  C  Sn1       1.0  0.54885  0.86915  0.20339  1.0000
  C   C113      1.0  0.54858  0.89826  0.30087  1.0000
  C  Sn2       1.0  0.57284  0.91672  0.39421  1.0000
  C  Sn3       1.0  0.59790  0.90588  0.38994  1.0000
  C   C114      1.0  0.59817  0.87679  0.29249  1.0000
  C  Sn4       1.0  0.57392  0.85831  0.19913  1.0000
  O  Te1       1.0  0.52435  0.85109  0.11107  1.0000
  O  Te2       1.0  0.57205  0.94574  0.49077  1.0000
  O  Te3       1.0  0.62242  0.92397  0.48238  1.0000
  O  Te4       1.0  0.57470  0.82931  0.10259  1.0000
  Mg  Mg1       1.0  0.61083  0.96183  0.59471  1.0000
  Mg  Mg2       1.0  0.59997  0.81313  0.99853  1.0000
  C  Sn5       1.0  0.43832  0.86976  0.35814  1.0000
  C   C115      1.0  0.41048  0.87495  0.23959  1.0000
  C  Sn6       1.0  0.40313  0.89663  0.08909  1.0000
  C  Sn7       1.0  0.42404  0.91347  0.05630  1.0000
  C   C116      1.0  0.45186  0.90828  0.17477  1.0000
  C  Sn8       1.0  0.45923  0.88660  0.32535  1.0000
  O  Te5       1.0  0.44520  0.84797  0.50774  1.0000
  O  Te6       1.0  0.43919  0.90133  0.97253  1.0000
  O  Te7       1.0  0.48117  0.93518  0.90654  1.0000
  O  Te8       1.0  0.48718  0.88181  0.44183  1.0000
  Mg  Mg3       1.0  0.44022  0.93347  0.78701  1.0000
  Mg  Mg4       1.0  0.48617  0.84966  0.62733  1.0000
  C  Sn9       1.0  0.08262  0.42081  0.38643  1.0000
  C   C117      1.0  0.05458  0.41553  0.27359  1.0000
  C  Sn10      1.0  0.04548  0.38439  0.18766  1.0000
  C  Sn11      1.0  0.06480  0.35795  0.21517  1.0000
  C   C118      1.0  0.09282  0.36323  0.32798  1.0000
  C  Sn12      1.0  0.10195  0.39437  0.41394  1.0000
  O  Te9       1.0  0.09126  0.45215  0.47096  1.0000
  O  Te10      1.0  0.01734  0.37972  0.07542  1.0000
  O  Te11      1.0  0.05614  0.32660  0.13052  1.0000
  O  Te12      1.0  0.13007  0.39904  0.52615  1.0000
  Mg  Mg5       1.0  0.07971  0.33243  0.99032  1.0000
  Mg  Mg6       1.0  0.13175  0.44623  0.61138  1.0000
  C  Sn13      1.0  0.91961  0.42270  0.14417  1.0000
  C   C119      1.0  0.94767  0.41673  0.25397  1.0000
  C  Sn14      1.0  0.95657  0.38520  0.33582  1.0000
  C  Sn15      1.0  0.93702  0.35908  0.30725  1.0000
  C   C120      1.0  0.90897  0.36506  0.19748  1.0000
  C  Sn16      1.0  0.90006  0.39658  0.11559  1.0000
  O  Te13      1.0  0.91118  0.45442  0.06369  1.0000
  O  Te14      1.0  0.98473  0.37984  0.44508  1.0000
  O  Te15      1.0  0.94547  0.32735  0.38784  1.0000
  O  Te16      1.0  0.87191  0.40195  0.00637  1.0000
  Mg  Mg7       1.0  0.98606  0.33234  0.52508  1.0000
  Mg  Mg8       1.0  0.93460  0.44935  0.92623  1.0000
  C  Sn17      1.0  0.45124  0.12113  0.38578  1.0000
  C   C121      1.0  0.45223  0.09379  0.27880  1.0000
  C  Sn18      1.0  0.42947  0.08618  0.11422  1.0000
  C  Sn19      1.0  0.40522  0.10633  0.05527  1.0000
  C   C122      1.0  0.40424  0.13365  0.16219  1.0000
  C  Sn20      1.0  0.42699  0.14128  0.32682  1.0000
  O  Te17      1.0  0.47423  0.12827  0.54982  1.0000
  O  Te18      1.0  0.43095  0.05871  0.00965  1.0000
  O  Te19      1.0  0.44625  0.09907  0.89108  1.0000
  O  Te20      1.0  0.42552  0.16873  0.43135  1.0000
  Mg  Mg9       1.0  0.45829  0.05903  0.79642  1.0000
  Mg  Mg10      1.0  0.46221  0.16835  0.64453  1.0000
  C  Sn21      1.0  0.58038  0.09380  0.46088  1.0000
  C   C123      1.0  0.55283  0.09820  0.33452  1.0000
  C  Sn22      1.0  0.54636  0.11767  0.17667  1.0000
  C  Sn23      1.0  0.56787  0.13305  0.14438  1.0000
  C   C124      1.0  0.59540  0.12864  0.27068  1.0000
  C  Sn24      1.0  0.60189  0.10918  0.42859  1.0000
  O  Te21      1.0  0.58637  0.07423  0.61775  1.0000
  O  Te22      1.0  0.51867  0.12172  0.05236  1.0000
  O  Te23      1.0  0.62589  0.15254  0.98736  1.0000
  O  Te24      1.0  0.62956  0.10512  0.55283  1.0000
  Mg  Mg11      1.0  0.58501  0.15061  0.85874  1.0000
  Mg  Mg12      1.0  0.62728  0.07614  0.74645  1.0000
  C  Sn25      1.0  0.93871  0.64447  0.29129  1.0000
  C   C125      1.0  0.91095  0.63780  0.17682  1.0000
  C  Sn26      1.0  0.90315  0.60654  0.08951  1.0000
  C  Sn27      1.0  0.92351  0.58142  0.11728  1.0000
  C   C126      1.0  0.95125  0.58809  0.23170  1.0000
  C  Sn28      1.0  0.95907  0.61934  0.31905  1.0000
  O  Te25      1.0  0.94604  0.67589  0.37718  1.0000
  O  Te26      1.0  0.93931  0.60038  0.97566  1.0000
  O  Te27      1.0  0.91616  0.54998  0.03126  1.0000
  O  Te28      1.0  0.98693  0.62542  0.43286  1.0000
  Mg  Mg13      1.0  0.93959  0.55364  0.88911  1.0000
  Mg  Mg14      1.0  0.98667  0.67214  0.51955  1.0000
  C  Sn29      1.0  0.06161  0.64486  0.20090  1.0000
  C   C127      1.0  0.08955  0.63925  0.31555  1.0000
  C  Sn30      1.0  0.09820  0.60846  0.40702  1.0000
  C  Sn31      1.0  0.07851  0.58273  0.38332  1.0000
  C   C128      1.0  0.05059  0.58834  0.26870  1.0000
  C  Sn32      1.0  0.04192  0.61913  0.17720  1.0000
  O  Te29      1.0  0.05342  0.67584  0.11081  1.0000
  O  Te30      1.0  0.12624  0.60345  0.52097  1.0000
  O  Te31      1.0  0.08672  0.55174  0.47354  1.0000
  O  Te32      1.0  0.01390  0.62415  0.06328  1.0000
  Mg  Mg15      1.0  0.12723  0.55696  0.61407  1.0000
  Mg  Mg16      1.0  0.07692  0.67053  0.97005  1.0000
  C  Sn33      1.0  0.65066  0.21592  0.11116  1.0000
  C   C129      1.0  0.64770  0.18680  0.19929  1.0000
  C  Sn34      1.0  0.67048  0.17305  0.34661  1.0000
  C  Sn35      1.0  0.69675  0.18874  0.40720  1.0000
  C   C130      1.0  0.69970  0.21784  0.31912  1.0000
  C  Sn36      1.0  0.67693  0.23161  0.17175  1.0000
  O  Te33      1.0  0.69164  0.22915  0.96416  1.0000
  O  Te34      1.0  0.66701  0.14391  0.43250  1.0000
  O  Te35      1.0  0.71981  0.17540  0.55432  1.0000
  O  Te36      1.0  0.68039  0.26073  0.08591  1.0000
  Mg  Mg17      1.0  0.70464  0.13535  0.62689  1.0000
  Mg  Mg18      1.0  0.70681  0.26924  0.89157  1.0000
  C  Sn37      1.0  0.33614  0.24068  0.26537  1.0000
  C   C131      1.0  0.31077  0.22491  0.22394  1.0000
  C  Sn38      1.0  0.30850  0.18981  0.20847  1.0000
  C  Sn39      1.0  0.33209  0.17004  0.23506  1.0000
  C   C132      1.0  0.35744  0.18580  0.27649  1.0000
  C  Sn40      1.0  0.35973  0.22091  0.29197  1.0000
  O  Te37      1.0  0.33792  0.27581  0.28018  1.0000
  O  Te38      1.0  0.28292  0.17462  0.16688  1.0000
  O  Te39      1.0  0.33029  0.13488  0.22021  1.0000
  O  Te40      1.0  0.38529  0.23609  0.33356  1.0000
  Mg  Mg19      1.0  0.29093  0.12592  0.16132  1.0000
  Mg  Mg20      1.0  0.37731  0.28479  0.33924  1.0000
  C  Sn41      1.0  0.14516  0.72433  0.10989  1.0000
  C   C133      1.0  0.14321  0.69368  0.18960  1.0000
  C  Sn42      1.0  0.16708  0.67708  0.31146  1.0000
  C  Sn43      1.0  0.19345  0.69143  0.35465  1.0000
  C   C134      1.0  0.19540  0.72206  0.27499  1.0000
  C  Sn44      1.0  0.17154  0.73868  0.15308  1.0000
  O  Te41      1.0  0.18506  0.74040  0.98844  1.0000
  O  Te42      1.0  0.16460  0.64646  0.38937  1.0000
  O  Te43      1.0  0.21760  0.67524  0.47620  1.0000
  O  Te44      1.0  0.17401  0.76928  0.07521  1.0000
  Mg  Mg21      1.0  0.20351  0.63407  0.54707  1.0000
  Mg  Mg22      1.0  0.19914  0.78162  0.91758  1.0000
  C  Sn45      1.0  0.85265  0.72475  0.34903  1.0000
  C   C135      1.0  0.85635  0.69265  0.29071  1.0000
  C  Sn46      1.0  0.83350  0.67252  0.18804  1.0000
  C  Sn47      1.0  0.80637  0.68474  0.14260  1.0000
  C   C136      1.0  0.80268  0.71682  0.20088  1.0000
  C  Sn48      1.0  0.82552  0.73697  0.30359  1.0000
  O  Te45      1.0  0.87580  0.74443  0.45153  1.0000
  O  Te46      1.0  0.83772  0.64051  0.13134  1.0000
  O  Te47      1.0  0.78322  0.66502  0.04003  1.0000
  O  Te48      1.0  0.82131  0.76896  0.36025  1.0000
  Mg  Mg23      1.0  0.86365  0.62308  0.99440  1.0000
  Mg  Mg24      1.0  0.85939  0.78634  0.49711  1.0000
  C  Sn49      1.0  0.35151  0.77631  0.31423  1.0000
  C   C137      1.0  0.35482  0.80612  0.23289  1.0000
  C  Sn50      1.0  0.33306  0.82924  0.15847  1.0000
  C  Sn51      1.0  0.30745  0.82242  0.16561  1.0000
  C   C138      1.0  0.30415  0.79262  0.24694  1.0000
  C  Sn52      1.0  0.32590  0.76949  0.32136  1.0000
  O  Te49      1.0  0.37355  0.75356  0.38776  1.0000
  O  Te50      1.0  0.33686  0.85887  0.07780  1.0000
  O  Te51      1.0  0.28540  0.84520  0.09198  1.0000
  O  Te52      1.0  0.32211  0.73988  0.40202  1.0000
  Mg  Mg25      1.0  0.36471  0.88195  0.99663  1.0000
  Mg  Mg26      1.0  0.35828  0.71670  0.48332  1.0000
  C  Sn53      1.0  0.64871  0.76861  0.22379  1.0000
  C   C139      1.0  0.64612  0.80120  0.28131  1.0000
  C  Sn54      1.0  0.66571  0.82592  0.29850  1.0000
  C  Sn55      1.0  0.68836  0.81791  0.25722  1.0000
  C   C140      1.0  0.69094  0.78533  0.19972  1.0000
  C  Sn56      1.0  0.67136  0.76060  0.18252  1.0000
  O  Te53      1.0  0.62888  0.74430  0.20757  1.0000
  O  Te54      1.0  0.66268  0.85833  0.35631  1.0000
  O  Te55      1.0  0.70820  0.84225  0.27350  1.0000
  O  Te56      1.0  0.67438  0.72821  0.12472  1.0000
  Mg  Mg27      1.0  0.69507  0.88278  0.35722  1.0000
  Mg  Mg28      1.0  0.64200  0.70374  0.12366  1.0000
  C  Sn57      1.0  0.82754  0.33026  0.21418  1.0000
  C   C141      1.0  0.85464  0.31784  0.29092  1.0000
  C  Sn58      1.0  0.85992  0.28417  0.34671  1.0000
  C  Sn59      1.0  0.83765  0.26244  0.32525  1.0000
  C   C142      1.0  0.81057  0.27485  0.24852  1.0000
  C  Sn60      1.0  0.80527  0.30853  0.19271  1.0000
  O  Te57      1.0  0.82274  0.36401  0.15935  1.0000
  O  Te58      1.0  0.88718  0.27234  0.42313  1.0000
  O  Te59      1.0  0.84247  0.22866  0.38015  1.0000
  O  Te60      1.0  0.77802  0.32035  0.11631  1.0000
  Mg  Mg29      1.0  0.88318  0.22438  0.47674  1.0000
  Mg  Mg30      1.0  0.78200  0.36830  0.06256  1.0000
  C  Sn61      1.0  0.16135  0.27496  0.10565  1.0000
  C   C143      1.0  0.18867  0.28439  0.21565  1.0000
  C  Sn62      1.0  0.19463  0.30673  0.36204  1.0000
  C  Sn63      1.0  0.17282  0.31990  0.39935  1.0000
  C   C144      1.0  0.14551  0.31047  0.28941  1.0000
  C  Sn64      1.0  0.13954  0.28813  0.14296  1.0000
  O  Te61      1.0  0.21991  0.25251  0.96003  1.0000
  O  Te62      1.0  0.22210  0.31580  0.47005  1.0000
  O  Te63      1.0  0.17831  0.34229  0.54510  1.0000
  O  Te64      1.0  0.11209  0.27906  0.03501  1.0000
  Mg  Mg31      1.0  0.21907  0.34704  0.65293  1.0000
  Mg  Mg32      1.0  0.17912  0.24772  0.85216  1.0000
  C  Sn65      1.0  0.54883  0.86704  0.69067  1.0000
  C   C145      1.0  0.54816  0.89522  0.79335  1.0000
  C  Sn66      1.0  0.57223  0.91375  0.89147  1.0000
  C  Sn67      1.0  0.59749  0.90391  0.88679  1.0000
  C   C146      1.0  0.59815  0.87575  0.78413  1.0000
  C  Sn68      1.0  0.57409  0.85721  0.68599  1.0000
  O  Te65      1.0  0.52453  0.84889  0.59363  1.0000
  O  Te66      1.0  0.57104  0.94182  0.99319  1.0000
  O  Te67      1.0  0.62180  0.92209  0.98395  1.0000
  O  Te68      1.0  0.57527  0.82916  0.58430  1.0000
  Mg  Mg33      1.0  0.54565  0.95852  0.10236  1.0000
  Mg  Mg34      1.0  0.53665  0.81253  0.47500  1.0000
  C  Sn69      1.0  0.45263  0.86509  0.79729  1.0000
  C   C147      1.0  0.45302  0.89442  0.70183  1.0000
  C  Sn70      1.0  0.42876  0.91297  0.60807  1.0000
  C  Sn71      1.0  0.40359  0.90199  0.60984  1.0000
  C   C148      1.0  0.40321  0.87268  0.70528  1.0000
  C  Sn72      1.0  0.42746  0.85411  0.79907  1.0000
  O  Te69      1.0  0.47712  0.84694  0.89008  1.0000
  O  Te70      1.0  0.42967  0.94220  0.51354  1.0000
  O  Te71      1.0  0.37909  0.92017  0.51693  1.0000
  O  Te72      1.0  0.42656  0.82490  0.89357  1.0000
  Mg  Mg35      1.0  0.39086  0.95834  0.40801  1.0000
  Mg  Mg36      1.0  0.46536  0.80876  0.99922  1.0000
  C  Sn73      1.0  0.05949  0.36534  0.62321  1.0000
  C   C149      1.0  0.08748  0.36895  0.74223  1.0000
  C  Sn74      1.0  0.09552  0.38921  0.89865  1.0000
  C  Sn75      1.0  0.07515  0.40620  0.93699  1.0000
  C   C150      1.0  0.04718  0.40258  0.81804  1.0000
  C  Sn76      1.0  0.03912  0.38233  0.66156  1.0000
  O  Te73      1.0  0.05193  0.34496  0.46765  1.0000
  O  Te74      1.0  0.05960  0.39253  0.01556  1.0000
  O  Te75      1.0  0.01870  0.42669  0.09271  1.0000
  O  Te76      1.0  0.01103  0.37909  0.54471  1.0000
  Mg  Mg37      1.0  0.05958  0.42313  0.21028  1.0000
  Mg  Mg38      1.0  0.01102  0.34849  0.35001  1.0000
  C  Sn77      1.0  0.91773  0.42119  0.63730  1.0000
  C   C151      1.0  0.94554  0.41486  0.75226  1.0000
  C  Sn78      1.0  0.95367  0.38366  0.84004  1.0000
  C  Sn79      1.0  0.93358  0.35826  0.81226  1.0000
  C   C152      1.0  0.90579  0.36459  0.69734  1.0000
  C  Sn80      1.0  0.89764  0.39578  0.60952  1.0000
  O  Te77      1.0  0.91007  0.45256  0.55093  1.0000
  O  Te78      1.0  0.98160  0.37793  0.95438  1.0000
  O  Te79      1.0  0.94126  0.32687  0.89875  1.0000
  O  Te80      1.0  0.86973  0.40152  0.49521  1.0000
  Mg  Mg39      1.0  0.91778  0.33122  0.04147  1.0000
  Mg  Mg40      1.0  0.86950  0.44830  0.40799  1.0000
  C  Sn81      1.0  0.41889  0.08689  0.54924  1.0000
  C   C153      1.0  0.44659  0.09342  0.66546  1.0000
  C  Sn82      1.0  0.45343  0.11577  0.81271  1.0000
  C  Sn83      1.0  0.43213  0.13191  0.84454  1.0000
  C   C154      1.0  0.40444  0.12537  0.72839  1.0000
  C  Sn84      1.0  0.39758  0.10303  0.58108  1.0000
  O  Te81      1.0  0.41253  0.06445  0.40288  1.0000
  O  Te82      1.0  0.48128  0.12191  0.92698  1.0000
  O  Te83      1.0  0.43850  0.15436  0.99105  1.0000
  O  Te84      1.0  0.36975  0.09688  0.46687  1.0000
  Mg  Mg41      1.0  0.41545  0.15458  0.10838  1.0000
  Mg  Mg42      1.0  0.37153  0.06429  0.28550  1.0000
  C  Sn85      1.0  0.55907  0.14314  0.71748  1.0000
  C   C155      1.0  0.58722  0.13732  0.82518  1.0000
  C  Sn86      1.0  0.59641  0.10569  0.90484  1.0000
  C  Sn87      1.0  0.57705  0.07932  0.87618  1.0000
  C   C156      1.0  0.54892  0.08515  0.76852  1.0000
  C  Sn88      1.0  0.53972  0.11678  0.68882  1.0000
  O  Te85      1.0  0.55036  0.17496  0.63917  1.0000
  O  Te86      1.0  0.56062  0.10056  0.01201  1.0000
  O  Te87      1.0  0.58579  0.04749  0.95461  1.0000
  O  Te88      1.0  0.51149  0.12199  0.58169  1.0000
  Mg  Mg43      1.0  0.56236  0.05285  0.08949  1.0000
  Mg  Mg44      1.0  0.50973  0.16969  0.50407  1.0000
  C  Sn89      1.0  0.92073  0.59068  0.54612  1.0000
  C   C157      1.0  0.94849  0.59596  0.66589  1.0000
  C  Sn90      1.0  0.95552  0.61716  0.81798  1.0000
  C  Sn91      1.0  0.93438  0.63340  0.85115  1.0000
  C   C158      1.0  0.90664  0.62811  0.73145  1.0000
  C  Sn92      1.0  0.89959  0.60692  0.57928  1.0000
  O  Te89      1.0  0.91418  0.56938  0.39494  1.0000
  O  Te90      1.0  0.98341  0.62206  0.93574  1.0000
  O  Te91      1.0  0.87693  0.65480  0.00248  1.0000
  O  Te92      1.0  0.87172  0.60201  0.46159  1.0000
  Mg  Mg45      1.0  0.91788  0.65348  0.12323  1.0000
  Mg  Mg46      1.0  0.87320  0.57068  0.27412  1.0000
  C  Sn93      1.0  0.08097  0.58911  0.95696  1.0000
  C   C159      1.0  0.05320  0.59376  0.83550  1.0000
  C  Sn94      1.0  0.04600  0.61479  0.68257  1.0000
  C  Sn95      1.0  0.06700  0.63151  0.65028  1.0000
  C   C160      1.0  0.09476  0.62686  0.77168  1.0000
  C  Sn96      1.0  0.10197  0.60583  0.92468  1.0000
  O  Te93      1.0  0.02366  0.56805  0.10896  1.0000
  O  Te94      1.0  0.01809  0.61905  0.56312  1.0000
  O  Te95      1.0  0.06026  0.65267  0.49814  1.0000
  O  Te96      1.0  0.06583  0.60165  0.04406  1.0000
  Mg  Mg47      1.0  0.01935  0.65041  0.37507  1.0000
  Mg  Mg48      1.0  0.06460  0.57028  0.23209  1.0000
  C  Sn97      1.0  0.68714  0.17981  0.82226  1.0000
  C   C161      1.0  0.68947  0.20953  0.73627  1.0000
  C  Sn98      1.0  0.66708  0.23174  0.66043  1.0000
  C  Sn99      1.0  0.64183  0.22410  0.67085  1.0000
  C   C162      1.0  0.63950  0.19440  0.75682  1.0000
  C  Sn100     1.0  0.66189  0.17217  0.83268  1.0000
  O  Te97      1.0  0.70979  0.15798  0.89714  1.0000
  O  Te98      1.0  0.66991  0.26129  0.57511  1.0000
  O  Te99      1.0  0.61917  0.24597  0.59587  1.0000
  O  Te100     1.0  0.65907  0.14264  0.91799  1.0000
  Mg  Mg49      1.0  0.63318  0.28307  0.49379  1.0000
  Mg  Mg50      1.0  0.69579  0.12085  0.99943  1.0000
  C  Sn101     1.0  0.33135  0.23457  0.74617  1.0000
  C   C163      1.0  0.30634  0.21795  0.70537  1.0000
  C  Sn102     1.0  0.30470  0.18285  0.68698  1.0000
  C  Sn103     1.0  0.32856  0.16397  0.70997  1.0000
  C   C164      1.0  0.35355  0.18059  0.75077  1.0000
  C  Sn104     1.0  0.35521  0.21569  0.76915  1.0000
  O  Te101     1.0  0.33251  0.26968  0.76393  1.0000
  O  Te102     1.0  0.27946  0.16679  0.64609  1.0000
  O  Te103     1.0  0.32737  0.12884  0.69216  1.0000
  O  Te104     1.0  0.38042  0.23174  0.81004  1.0000
  Mg  Mg51      1.0  0.28831  0.11850  0.63561  1.0000
  Mg  Mg52      1.0  0.37161  0.28003  0.82065  1.0000
  C  Sn105     1.0  0.16285  0.73808  0.71835  1.0000
  C   C165      1.0  0.18919  0.72369  0.77944  1.0000
  C  Sn106     1.0  0.19301  0.68918  0.81789  1.0000
  C  Sn107     1.0  0.17002  0.66862  0.79469  1.0000
  C   C166      1.0  0.14370  0.68301  0.73361  1.0000
  C  Sn108     1.0  0.13986  0.71752  0.69515  1.0000
  O  Te105     1.0  0.15951  0.77264  0.68073  1.0000
  O  Te106     1.0  0.21954  0.67537  0.87886  1.0000
  O  Te107     1.0  0.17338  0.63404  0.83238  1.0000
  O  Te108     1.0  0.11334  0.73133  0.63419  1.0000
  Mg  Mg53      1.0  0.21356  0.62698  0.91201  1.0000
  Mg  Mg54      1.0  0.11930  0.77971  0.60091  1.0000
  C  Sn109     1.0  0.81484  0.67721  0.73583  1.0000
  C   C167      1.0  0.81162  0.71011  0.78666  1.0000
  C  Sn110     1.0  0.83080  0.73509  0.79947  1.0000
  C  Sn111     1.0  0.85366  0.72704  0.76056  1.0000
  C   C168      1.0  0.85687  0.69416  0.70974  1.0000
  C  Sn112     1.0  0.83770  0.66915  0.69692  1.0000
  O  Te109     1.0  0.79541  0.65263  0.72389  1.0000
  O  Te110     1.0  0.82715  0.76780  0.85061  1.0000
  O  Te111     1.0  0.87309  0.75165  0.77254  1.0000
  O  Te112     1.0  0.84134  0.63647  0.64579  1.0000
  Mg  Mg55      1.0  0.85916  0.79254  0.84762  1.0000
  Mg  Mg56      1.0  0.80933  0.61171  0.64864  1.0000
  C  Sn113     1.0  0.33878  0.77459  0.90687  1.0000
  C   C169      1.0  0.31158  0.78521  0.80217  1.0000
  C  Sn114     1.0  0.30567  0.80850  0.65994  1.0000
  C  Sn115     1.0  0.32742  0.82143  0.62144  1.0000
  C   C170      1.0  0.35461  0.81080  0.72608  1.0000
  C  Sn116     1.0  0.36053  0.78752  0.86837  1.0000
  O  Te113     1.0  0.28017  0.75137  0.04840  1.0000
  O  Te114     1.0  0.27831  0.81875  0.55721  1.0000
  O  Te115     1.0  0.32197  0.84476  0.47978  1.0000
  O  Te116     1.0  0.38787  0.77726  0.97104  1.0000
  Mg  Mg57      1.0  0.28137  0.85097  0.37850  1.0000
  Mg  Mg58      1.0  0.32080  0.74512  0.14971  1.0000
  C  Sn117     1.0  0.65197  0.76948  0.72813  1.0000
  C   C171      1.0  0.64789  0.80200  0.77952  1.0000
  C  Sn118     1.0  0.66666  0.82775  0.79575  1.0000
  C  Sn119     1.0  0.68997  0.82084  0.75975  1.0000
  C   C172      1.0  0.69404  0.78833  0.70837  1.0000
  C  Sn120     1.0  0.67528  0.76257  0.69214  1.0000
  O  Te117     1.0  0.63295  0.74413  0.71275  1.0000
  O  Te118     1.0  0.66215  0.86006  0.84738  1.0000
  O  Te119     1.0  0.70900  0.84622  0.77518  1.0000
  O  Te120     1.0  0.67978  0.73028  0.64051  1.0000
  Mg  Mg59      1.0  0.69389  0.88618  0.84958  1.0000
  Mg  Mg60      1.0  0.64805  0.70415  0.63817  1.0000
  C  Sn121     1.0  0.84806  0.27233  0.80218  1.0000
  C   C173      1.0  0.85092  0.30318  0.72777  1.0000
  C  Sn122     1.0  0.83009  0.32760  0.67902  1.0000
  C  Sn123     1.0  0.80590  0.32106  0.70530  1.0000
  C   C174      1.0  0.80305  0.29023  0.77970  1.0000
  C  Sn124     1.0  0.82387  0.26579  0.82846  1.0000
  O  Te121     1.0  0.86915  0.24828  0.84994  1.0000
  O  Te122     1.0  0.83342  0.35824  0.60481  1.0000
  O  Te123     1.0  0.78481  0.34513  0.65746  1.0000
  O  Te124     1.0  0.82055  0.23516  0.90266  1.0000
  Mg  Mg61      1.0  0.79894  0.38302  0.56135  1.0000
  Mg  Mg62      1.0  0.85502  0.21037  0.94626  1.0000
  C  Sn125     1.0  0.17277  0.32426  0.80216  1.0000
  C   C175      1.0  0.14544  0.31336  0.70667  1.0000
  C  Sn126     1.0  0.13980  0.28030  0.64083  1.0000
  C  Sn127     1.0  0.16193  0.25764  0.67117  1.0000
  C   C176      1.0  0.18924  0.26854  0.76663  1.0000
  C  Sn128     1.0  0.19491  0.30160  0.83249  1.0000
  O  Te125     1.0  0.17794  0.35742  0.86675  1.0000
  O  Te126     1.0  0.11230  0.26999  0.54569  1.0000
  O  Te127     1.0  0.15674  0.22446  0.60648  1.0000
  O  Te128     1.0  0.22238  0.31191  0.92761  1.0000
  Mg  Mg63      1.0  0.11582  0.22231  0.48466  1.0000
  Mg  Mg64      1.0  0.21888  0.35958  0.98878  1.0000
