data_image0
_chemical_formula_structural       H28C64N16SnCSn2CSnTe4Mg2SnCSn2CSnTe4Mg2SnCSn2CSnTe4Mg2SnCSn2CSnTe4Mg2SnCSn2CSnTe4Mg2SnCSn2CSnTe4Mg2SnCSn2CSnTe4Mg2SnCSn2CSnTe4Mg2SnCSn2CSnTe4Mg2SnCSn2CSnTe4Mg2SnCSn2CSnTe4Mg2SnCSn2CSnTe4Mg2SnCSn2CSnTe4Mg2SnCSn2CSnTe4Mg2SnCSn2CSnTe4Mg2SnCSn2CSnTe4Mg2
_chemical_formula_sum              "H28 C96 N16 Sn64 Te64 Mg32"
_cell_length_a       35.0931
_cell_length_b       35.1016
_cell_length_c       8.15403
_cell_angle_alpha    88.7904
_cell_angle_beta     91.1915
_cell_angle_gamma    91.1052

_symmetry_space_group_name_H-M    'P1'
_space_group_IT_number       1

loop_
  _space_group_symop_operation_xyz
  'x, y, z'

loop_
  _atom_site_type_symbol
  _atom_site_label
  _atom_site_symmetry_multiplicity
  _atom_site_fract_x
  _atom_site_fract_y
  _atom_site_fract_z
  _atom_site_occupancy
  H   H1        1.0  0.46158  0.77429  0.33436  1.0000
  H   H2        1.0  0.53028  0.22630  0.40554  1.0000
  H   H3        1.0  0.56644  0.37348  0.11641  1.0000
  H   H4        1.0  0.43258  0.63009  0.12797  1.0000
  H   H5        1.0  0.62330  0.42531  0.13978  1.0000
  H   H6        1.0  0.37589  0.57751  0.12997  1.0000
  H   H7        1.0  0.37050  0.43087  0.37012  1.0000
  H   H8        1.0  0.63033  0.56947  0.37239  1.0000
  H   H9        1.0  0.42101  0.37479  0.35478  1.0000
  H   H10       1.0  0.57905  0.62546  0.36240  1.0000
  H   H11       1.0  0.47624  0.47891  0.22126  1.0000
  H   H12       1.0  0.52242  0.52204  0.23747  1.0000
  H   H13       1.0  0.22515  0.47648  0.07669  1.0000
  H   H14       1.0  0.77549  0.53837  0.16731  1.0000
  H   H15       1.0  0.46319  0.77420  0.81726  1.0000
  H   H16       1.0  0.53706  0.22655  0.85260  1.0000
  H   H17       1.0  0.56602  0.37153  0.62849  1.0000
  H   H18       1.0  0.43098  0.62960  0.62780  1.0000
  H   H19       1.0  0.62267  0.42389  0.64313  1.0000
  H   H20       1.0  0.37396  0.57785  0.63636  1.0000
  H   H21       1.0  0.36952  0.42960  0.86612  1.0000
  H   H22       1.0  0.62869  0.56818  0.87671  1.0000
  H   H23       1.0  0.42086  0.37392  0.85117  1.0000
  H   H24       1.0  0.57751  0.62424  0.86582  1.0000
  H   H25       1.0  0.47448  0.47833  0.71178  1.0000
  H   H26       1.0  0.52144  0.52098  0.73264  1.0000
  H   H27       1.0  0.22239  0.46819  0.59759  1.0000
  H   H28       1.0  0.77370  0.53840  0.64086  1.0000
  C   C1        1.0  0.50361  0.98165  0.23797  1.0000
  C   C2        1.0  0.50441  0.01998  0.24128  1.0000
  C   C3        1.0  0.50284  0.94658  0.24051  1.0000
  C   C4        1.0  0.50481  0.05493  0.25063  1.0000
  C   C5        1.0  0.48856  0.78482  0.28180  1.0000
  C   C6        1.0  0.50992  0.21609  0.31114  1.0000
  C   C7        1.0  0.56490  0.40227  0.16016  1.0000
  C   C8        1.0  0.43423  0.60033  0.16369  1.0000
  C   C9        1.0  0.59375  0.42865  0.17087  1.0000
  C   C10       1.0  0.40551  0.57371  0.16456  1.0000
  C   C11       1.0  0.57696  0.46321  0.23051  1.0000
  C   C12       1.0  0.42238  0.53810  0.22132  1.0000
  C   C13       1.0  0.53081  0.42069  0.21635  1.0000
  C   C14       1.0  0.46845  0.58082  0.22008  1.0000
  C   C15       1.0  0.39973  0.43335  0.33153  1.0000
  C   C16       1.0  0.60048  0.56716  0.33814  1.0000
  C   C17       1.0  0.42575  0.40462  0.32494  1.0000
  C   C18       1.0  0.57424  0.59584  0.33293  1.0000
  C   C19       1.0  0.46113  0.42082  0.27069  1.0000
  C   C20       1.0  0.53830  0.57988  0.28062  1.0000
  C   C21       1.0  0.41794  0.46814  0.27861  1.0000
  C   C22       1.0  0.58157  0.53264  0.28892  1.0000
  C   C23       1.0  0.49531  0.40167  0.24096  1.0000
  C   C24       1.0  0.50405  0.59937  0.24871  1.0000
  C   C25       1.0  0.40108  0.50404  0.25133  1.0000
  C   C26       1.0  0.59814  0.49701  0.26359  1.0000
  C   C27       1.0  0.01902  0.49387  0.25800  1.0000
  C   C28       1.0  0.98074  0.49482  0.26529  1.0000
  C   C29       1.0  0.05392  0.49369  0.24591  1.0000
  C   C30       1.0  0.94573  0.49607  0.26681  1.0000
  C   C31       1.0  0.21510  0.49256  0.18129  1.0000
  C   C32       1.0  0.78464  0.51207  0.23110  1.0000
  C   C33       1.0  0.50547  0.98099  0.73505  1.0000
  C   C34       1.0  0.50522  0.01932  0.73856  1.0000
  C   C35       1.0  0.50545  0.94591  0.73590  1.0000
  C   C36       1.0  0.50433  0.05430  0.74556  1.0000
  C   C37       1.0  0.49084  0.78428  0.76969  1.0000
  C   C38       1.0  0.51107  0.21579  0.79037  1.0000
  C   C39       1.0  0.56427  0.40093  0.66425  1.0000
  C   C40       1.0  0.43251  0.60002  0.66704  1.0000
  C   C41       1.0  0.59299  0.42751  0.67122  1.0000
  C   C42       1.0  0.40355  0.57363  0.67067  1.0000
  C   C43       1.0  0.57601  0.46258  0.72449  1.0000
  C   C44       1.0  0.42042  0.53788  0.72649  1.0000
  C   C45       1.0  0.52990  0.41998  0.71315  1.0000
  C   C46       1.0  0.46679  0.58040  0.72248  1.0000
  C   C47       1.0  0.39862  0.43222  0.82579  1.0000
  C   C48       1.0  0.59893  0.56606  0.84055  1.0000
  C   C49       1.0  0.42490  0.40370  0.81854  1.0000
  C   C50       1.0  0.57267  0.59469  0.83556  1.0000
  C   C51       1.0  0.45993  0.42018  0.76221  1.0000
  C   C52       1.0  0.53684  0.57888  0.78108  1.0000
  C   C53       1.0  0.41651  0.46723  0.77271  1.0000
  C   C54       1.0  0.58024  0.53175  0.78758  1.0000
  C   C55       1.0  0.49430  0.40117  0.73554  1.0000
  C   C56       1.0  0.50273  0.59862  0.74833  1.0000
  C   C57       1.0  0.39957  0.50331  0.75205  1.0000
  C   C58       1.0  0.59712  0.49639  0.75854  1.0000
  C   C59       1.0  0.01768  0.49889  0.75946  1.0000
  C   C60       1.0  0.97940  0.49998  0.76359  1.0000
  C   C61       1.0  0.05260  0.49827  0.74997  1.0000
  C   C62       1.0  0.94438  0.50107  0.76285  1.0000
  C   C63       1.0  0.21328  0.48939  0.68550  1.0000
  C   C64       1.0  0.78327  0.51454  0.72008  1.0000
  N   N1        1.0  0.53848  0.45818  0.25150  1.0000
  N   N2        1.0  0.46094  0.54272  0.24806  1.0000
  N   N3        1.0  0.45528  0.45935  0.24818  1.0000
  N   N4        1.0  0.54383  0.54149  0.26024  1.0000
  N   N5        1.0  0.51427  0.76236  0.22907  1.0000
  N   N6        1.0  0.48879  0.23874  0.22284  1.0000
  N   N7        1.0  0.23824  0.51000  0.28171  1.0000
  N   N8        1.0  0.76090  0.48739  0.29370  1.0000
  N   N9        1.0  0.53742  0.45776  0.74306  1.0000
  N   N10       1.0  0.45898  0.54242  0.75221  1.0000
  N   N11       1.0  0.45370  0.45862  0.73882  1.0000
  N   N12       1.0  0.54250  0.54056  0.75885  1.0000
  N   N13       1.0  0.51680  0.76133  0.72335  1.0000
  N   N14       1.0  0.48552  0.23807  0.72659  1.0000
  N   N15       1.0  0.23687  0.51001  0.77199  1.0000
  N   N16       1.0  0.75998  0.49095  0.79258  1.0000
  C  Sn1       1.0  0.53451  0.85208  0.24500  1.0000
  C   C65       1.0  0.50390  0.83011  0.30391  1.0000
  C  Sn2       1.0  0.46847  0.84656  0.32546  1.0000
  C  Sn3       1.0  0.46353  0.88579  0.28725  1.0000
  C   C66       1.0  0.49412  0.90773  0.22835  1.0000
  C  Sn4       1.0  0.52956  0.89130  0.20678  1.0000
  O  Te1       1.0  0.56968  0.83503  0.22438  1.0000
  O  Te2       1.0  0.43830  0.82403  0.38458  1.0000
  O  Te3       1.0  0.42833  0.90282  0.30792  1.0000
  O  Te4       1.0  0.55972  0.91381  0.14768  1.0000
  Mg  Mg1       1.0  0.39588  0.86029  0.39184  1.0000
  Mg  Mg2       1.0  0.60215  0.87758  0.14029  1.0000
  C  Sn5       1.0  0.47038  0.14813  0.22277  1.0000
  C   C67       1.0  0.49689  0.17039  0.31032  1.0000
  C  Sn6       1.0  0.53113  0.15480  0.36751  1.0000
  C  Sn7       1.0  0.53904  0.11617  0.33647  1.0000
  C   C68       1.0  0.51255  0.09395  0.24895  1.0000
  C  Sn8       1.0  0.47830  0.10951  0.19173  1.0000
  O  Te5       1.0  0.43635  0.16431  0.16675  1.0000
  O  Te6       1.0  0.55718  0.17761  0.45480  1.0000
  O  Te7       1.0  0.57311  0.10001  0.39258  1.0000
  O  Te8       1.0  0.45226  0.08672  0.10447  1.0000
  Mg  Mg3       1.0  0.59958  0.14260  0.50571  1.0000
  Mg  Mg4       1.0  0.40986  0.12171  0.05343  1.0000
  C  Sn9       1.0  0.53163  0.69317  0.11152  1.0000
  C   C69       1.0  0.50833  0.71817  0.19286  1.0000
  C  Sn10      1.0  0.48480  0.70473  0.31833  1.0000
  C  Sn11      1.0  0.48455  0.66549  0.36353  1.0000
  C   C70       1.0  0.50784  0.64051  0.28224  1.0000
  C  Sn12      1.0  0.53138  0.65393  0.15672  1.0000
  O  Te9       1.0  0.55967  0.70242  0.98645  1.0000
  O  Te10      1.0  0.46175  0.73027  0.39782  1.0000
  O  Te11      1.0  0.46122  0.65144  0.48871  1.0000
  O  Te12      1.0  0.55442  0.62841  0.07727  1.0000
  Mg  Mg5       1.0  0.43495  0.69742  0.56052  1.0000
  Mg  Mg6       1.0  0.58599  0.65642  0.91463  1.0000
  C  Sn13      1.0  0.51869  0.30637  0.36397  1.0000
  C   C71       1.0  0.49212  0.28223  0.28664  1.0000
  C  Sn14      1.0  0.46653  0.29672  0.16868  1.0000
  C  Sn15      1.0  0.46753  0.33616  0.12707  1.0000
  C   C72       1.0  0.49410  0.36027  0.20436  1.0000
  C  Sn16      1.0  0.51969  0.34581  0.32236  1.0000
  O  Te13      1.0  0.54400  0.29126  0.48153  1.0000
  O  Te14      1.0  0.44021  0.27202  0.09307  1.0000
  O  Te15      1.0  0.44219  0.35125  0.00941  1.0000
  O  Te16      1.0  0.54600  0.37048  0.39792  1.0000
  Mg  Mg7       1.0  0.41637  0.30134  0.94052  1.0000
  Mg  Mg8       1.0  0.57460  0.33638  0.55043  1.0000
  C  Sn17      1.0  0.69473  0.53013  0.21788  1.0000
  C   C73       1.0  0.71781  0.50333  0.29841  1.0000
  C  Sn18      1.0  0.70210  0.46905  0.35827  1.0000
  C  Sn19      1.0  0.66249  0.46138  0.33712  1.0000
  C   C74       1.0  0.63944  0.48816  0.25661  1.0000
  C  Sn20      1.0  0.65513  0.52245  0.19673  1.0000
  O  Te17      1.0  0.71105  0.56421  0.15903  1.0000
  O  Te18      1.0  0.72575  0.44271  0.43842  1.0000
  O  Te19      1.0  0.64619  0.42726  0.39606  1.0000
  O  Te20      1.0  0.63150  0.54878  0.11660  1.0000
  Mg  Mg9       1.0  0.69015  0.40036  0.49679  1.0000
  Mg  Mg10      1.0  0.66707  0.59113  0.05811  1.0000
  C  Sn21      1.0  0.32682  0.48157  0.13197  1.0000
  C   C75       1.0  0.35336  0.50678  0.20299  1.0000
  C  Sn22      1.0  0.34235  0.53143  0.32489  1.0000
  C  Sn23      1.0  0.30403  0.53086  0.37697  1.0000
  C   C76       1.0  0.27752  0.50566  0.30599  1.0000
  C  Sn24      1.0  0.28850  0.48100  0.18405  1.0000
  O  Te21      1.0  0.33846  0.45717  0.01031  1.0000
  O  Te22      1.0  0.36939  0.55639  0.39403  1.0000
  O  Te23      1.0  0.29241  0.55529  0.49873  1.0000
  O  Te24      1.0  0.26149  0.45605  0.11495  1.0000
  Mg  Mg11      1.0  0.33972  0.58410  0.55576  1.0000
  Mg  Mg12      1.0  0.29587  0.42350  0.95328  1.0000
  C  Sn25      1.0  0.12035  0.45675  0.16111  1.0000
  C   C77       1.0  0.09860  0.48164  0.25053  1.0000
  C  Sn26      1.0  0.11452  0.51596  0.30560  1.0000
  C  Sn27      1.0  0.15297  0.52561  0.27049  1.0000
  C   C78       1.0  0.17469  0.50073  0.18111  1.0000
  C  Sn28      1.0  0.15880  0.46640  0.12600  1.0000
  O  Te25      1.0  0.10385  0.42259  0.10727  1.0000
  O  Te26      1.0  0.09222  0.54038  0.39482  1.0000
  O  Te27      1.0  0.16946  0.55980  0.32443  1.0000
  O  Te28      1.0  0.18107  0.44200  0.03681  1.0000
  Mg  Mg13      1.0  0.12753  0.58366  0.44151  1.0000
  Mg  Mg14      1.0  0.15053  0.39391  0.98999  1.0000
  C  Sn29      1.0  0.85047  0.47800  0.37426  1.0000
  C   C79       1.0  0.82973  0.50670  0.29405  1.0000
  C  Sn30      1.0  0.84728  0.53116  0.17999  1.0000
  C  Sn31      1.0  0.88638  0.52684  0.14529  1.0000
  C   C80       1.0  0.90710  0.49815  0.22545  1.0000
  C  Sn32      1.0  0.88957  0.47368  0.33956  1.0000
  O  Te29      1.0  0.83234  0.45387  0.48783  1.0000
  O  Te30      1.0  0.82595  0.55965  0.10140  1.0000
  O  Te31      1.0  0.90450  0.55100  0.03162  1.0000
  O  Te32      1.0  0.91087  0.44521  0.41810  1.0000
  Mg  Mg15      1.0  0.86814  0.58064  0.95637  1.0000
  Mg  Mg16      1.0  0.87344  0.41937  0.56309  1.0000
  C  Sn33      1.0  0.47174  0.87975  0.86089  1.0000
  C   C81       1.0  0.50155  0.90177  0.79523  1.0000
  C  Sn34      1.0  0.52808  0.88531  0.69424  1.0000
  C  Sn35      1.0  0.52473  0.84603  0.65802  1.0000
  C   C82       1.0  0.49493  0.82403  0.72363  1.0000
  C  Sn36      1.0  0.46839  0.84047  0.82467  1.0000
  O  Te33      1.0  0.44554  0.89680  0.96155  1.0000
  O  Te34      1.0  0.55764  0.90790  0.63009  1.0000
  O  Te35      1.0  0.55096  0.82899  0.55727  1.0000
  O  Te36      1.0  0.43883  0.81790  0.88878  1.0000
  Mg  Mg17      1.0  0.58623  0.87160  0.49919  1.0000
  Mg  Mg18      1.0  0.40548  0.85898  0.01961  1.0000
  C  Sn37      1.0  0.54512  0.14455  0.80449  1.0000
  C   C83       1.0  0.51759  0.17072  0.75333  1.0000
  C  Sn38      1.0  0.48044  0.15840  0.71507  1.0000
  C  Sn39      1.0  0.47059  0.11909  0.72832  1.0000
  C   C84       1.0  0.49811  0.09294  0.77948  1.0000
  C  Sn40      1.0  0.53528  0.10524  0.81774  1.0000
  O  Te37      1.0  0.58208  0.15751  0.84212  1.0000
  O  Te38      1.0  0.45341  0.18510  0.66414  1.0000
  O  Te39      1.0  0.43359  0.10614  0.69063  1.0000
  O  Te40      1.0  0.56229  0.07857  0.86867  1.0000
  Mg  Mg19      1.0  0.40683  0.15348  0.62673  1.0000
  Mg  Mg20      1.0  0.60887  0.11016  0.90619  1.0000
  C  Sn41      1.0  0.47076  0.67202  0.79122  1.0000
  C   C85       1.0  0.49433  0.64626  0.71591  1.0000
  C  Sn42      1.0  0.53000  0.65810  0.65895  1.0000
  C  Sn43      1.0  0.54238  0.69649  0.67773  1.0000
  C   C86       1.0  0.51881  0.72223  0.75303  1.0000
  C  Sn44      1.0  0.48313  0.71041  0.81001  1.0000
  O  Te41      1.0  0.43521  0.65956  0.84726  1.0000
  O  Te42      1.0  0.55306  0.63182  0.58401  1.0000
  O  Te43      1.0  0.57795  0.70894  0.62162  1.0000
  O  Te44      1.0  0.46009  0.73667  0.88493  1.0000
  Mg  Mg21      1.0  0.59909  0.66248  0.52786  1.0000
  Mg  Mg22      1.0  0.41406  0.70604  0.94120  1.0000
  C  Sn45      1.0  0.46773  0.30802  0.60085  1.0000
  C   C87       1.0  0.49118  0.28269  0.68829  1.0000
  C  Sn46      1.0  0.51423  0.29545  0.81841  1.0000
  C  Sn47      1.0  0.51383  0.33434  0.86211  1.0000
  C   C88       1.0  0.49039  0.35964  0.77472  1.0000
  C  Sn48      1.0  0.46733  0.34691  0.64456  1.0000
  O  Te45      1.0  0.44491  0.29464  0.47122  1.0000
  O  Te46      1.0  0.53745  0.26960  0.90397  1.0000
  O  Te47      1.0  0.53667  0.34771  0.99186  1.0000
  O  Te48      1.0  0.44412  0.37274  0.55905  1.0000
  Mg  Mg23      1.0  0.55868  0.30633  0.07125  1.0000
  Mg  Mg24      1.0  0.41812  0.34085  0.39181  1.0000
  C  Sn49      1.0  0.69268  0.53228  0.72147  1.0000
  C   C89       1.0  0.71635  0.50536  0.79764  1.0000
  C  Sn50      1.0  0.70158  0.46989  0.84822  1.0000
  C  Sn51      1.0  0.66233  0.46113  0.82204  1.0000
  C   C90       1.0  0.63868  0.48804  0.74589  1.0000
  C  Sn52      1.0  0.65343  0.52352  0.69530  1.0000
  O  Te49      1.0  0.70806  0.56756  0.67190  1.0000
  O  Te50      1.0  0.72581  0.44345  0.92415  1.0000
  O  Te51      1.0  0.64697  0.42582  0.87169  1.0000
  O  Te52      1.0  0.62922  0.54996  0.61938  1.0000
  Mg  Mg25      1.0  0.69145  0.39927  0.96974  1.0000
  Mg  Mg26      1.0  0.66356  0.59414  0.57367  1.0000
  C  Sn53      1.0  0.32614  0.48240  0.62464  1.0000
  C   C91       1.0  0.35238  0.50602  0.70684  1.0000
  C  Sn54      1.0  0.34070  0.52864  0.83473  1.0000
  C  Sn55      1.0  0.30198  0.52761  0.88151  1.0000
  C   C92       1.0  0.27577  0.50399  0.79935  1.0000
  C  Sn56      1.0  0.28743  0.48137  0.67142  1.0000
  O  Te53      1.0  0.33846  0.46002  0.49715  1.0000
  O  Te54      1.0  0.36745  0.55204  0.91504  1.0000
  O  Te55      1.0  0.28494  0.55482  0.00911  1.0000
  O  Te56      1.0  0.26070  0.45797  0.59115  1.0000
  Mg  Mg27      1.0  0.33209  0.58204  0.08118  1.0000
  Mg  Mg28      1.0  0.29129  0.43276  0.42506  1.0000
  C  Sn57      1.0  0.14873  0.52022  0.83462  1.0000
  C   C93       1.0  0.16923  0.49268  0.75447  1.0000
  C  Sn58      1.0  0.15073  0.46791  0.64569  1.0000
  C  Sn59      1.0  0.11090  0.47074  0.61630  1.0000
  C   C94       1.0  0.09041  0.49828  0.69640  1.0000
  C  Sn60      1.0  0.10889  0.52306  0.80523  1.0000
  O  Te57      1.0  0.16781  0.54469  0.94286  1.0000
  O  Te58      1.0  0.17184  0.44059  0.56706  1.0000
  O  Te59      1.0  0.09182  0.44624  0.50796  1.0000
  O  Te60      1.0  0.08781  0.55036  0.88381  1.0000
  Mg  Mg29      1.0  0.13298  0.41377  0.43039  1.0000
  Mg  Mg30      1.0  0.12190  0.58203  0.02043  1.0000
  C  Sn61      1.0  0.85676  0.53447  0.61764  1.0000
  C   C95       1.0  0.82899  0.51030  0.68618  1.0000
  C  Sn62      1.0  0.83898  0.48338  0.80736  1.0000
  C  Sn63      1.0  0.87753  0.48057  0.86125  1.0000
  C   C96       1.0  0.90528  0.50474  0.79274  1.0000
  C  Sn64      1.0  0.89531  0.53167  0.67152  1.0000
  O  Te61      1.0  0.84612  0.56118  0.49665  1.0000
  O  Te62      1.0  0.81071  0.45951  0.87402  1.0000
  O  Te63      1.0  0.88815  0.45384  0.98233  1.0000
  O  Te64      1.0  0.92355  0.55552  0.60490  1.0000
  Mg  Mg31      1.0  0.83460  0.43253  0.03574  1.0000
  Mg  Mg32      1.0  0.89495  0.58734  0.44324  1.0000
