data_image0
_chemical_formula_structural       H28C64N16SnCSn2CSnTe4Mg2SnCSn2CSnTe4Mg2SnCSn2CSnTe4Mg2SnCSn2CSnTe4Mg2SnCSn2CSnTe4Mg2SnCSn2CSnTe4Mg2SnCSn2CSnTe4Mg2SnCSn2CSnTe4Mg2SnCSn2CSnTe4Mg2SnCSn2CSnTe4Mg2SnCSn2CSnTe4Mg2SnCSn2CSnTe4Mg2SnCSn2CSnTe4Mg2SnCSn2CSnTe4Mg2SnCSn2CSnTe4Mg2SnCSn2CSnTe4Mg2
_chemical_formula_sum              "H28 C96 N16 Sn64 Te64 Mg32"
_cell_length_a       33.9828
_cell_length_b       33.9514
_cell_length_c       8.08138
_cell_angle_alpha    90.3349
_cell_angle_beta     90.3908
_cell_angle_gamma    90.7266

_symmetry_space_group_name_H-M    'P1'
_space_group_IT_number       1

loop_
  _space_group_symop_operation_xyz
  'x, y, z'

loop_
  _atom_site_type_symbol
  _atom_site_label
  _atom_site_symmetry_multiplicity
  _atom_site_fract_x
  _atom_site_fract_y
  _atom_site_fract_z
  _atom_site_occupancy
  H   H1        1.0  0.47451  0.78781  0.41167  1.0000
  H   H2        1.0  0.51502  0.21425  0.91848  1.0000
  H   H3        1.0  0.56640  0.36588  0.11957  1.0000
  H   H4        1.0  0.43115  0.63544  0.63912  1.0000
  H   H5        1.0  0.62517  0.41935  0.12862  1.0000
  H   H6        1.0  0.37283  0.58153  0.64730  1.0000
  H   H7        1.0  0.36224  0.42701  0.35461  1.0000
  H   H8        1.0  0.63676  0.57237  0.85471  1.0000
  H   H9        1.0  0.41552  0.36918  0.34189  1.0000
  H   H10       1.0  0.58330  0.62987  0.85882  1.0000
  H   H11       1.0  0.47245  0.47740  0.22684  1.0000
  H   H12       1.0  0.52569  0.52324  0.72054  1.0000
  H   H13       1.0  0.21004  0.49083  0.08589  1.0000
  H   H14       1.0  0.78884  0.51148  0.57631  1.0000
  H   H15       1.0  0.54815  0.22186  0.36897  1.0000
  H   H16       1.0  0.45463  0.77936  0.77815  1.0000
  H   H17       1.0  0.42889  0.63196  0.12225  1.0000
  H   H18       1.0  0.57036  0.36687  0.62186  1.0000
  H   H19       1.0  0.37013  0.57896  0.12951  1.0000
  H   H20       1.0  0.62840  0.42039  0.62068  1.0000
  H   H21       1.0  0.63256  0.56983  0.36820  1.0000
  H   H22       1.0  0.36868  0.43175  0.88645  1.0000
  H   H23       1.0  0.57940  0.62766  0.36978  1.0000
  H   H24       1.0  0.42105  0.37323  0.87868  1.0000
  H   H25       1.0  0.52160  0.52084  0.23212  1.0000
  H   H26       1.0  0.47831  0.47856  0.72952  1.0000
  H   H27       1.0  0.77748  0.54868  0.13490  1.0000
  H   H28       1.0  0.22182  0.45643  0.60829  1.0000
  C   C1        1.0  0.50648  0.98833  0.19483  1.0000
  C   C2        1.0  0.49908  0.01150  0.69573  1.0000
  C   C3        1.0  0.50382  0.95482  0.08744  1.0000
  C   C4        1.0  0.50087  0.04476  0.58859  1.0000
  C   C5        1.0  0.49398  0.79504  0.30766  1.0000
  C   C6        1.0  0.49882  0.20559  0.80530  1.0000
  C   C7        1.0  0.56490  0.39642  0.15736  1.0000
  C   C8        1.0  0.43317  0.60478  0.67323  1.0000
  C   C9        1.0  0.59473  0.42354  0.16191  1.0000
  C   C10       1.0  0.40359  0.57736  0.67688  1.0000
  C   C11       1.0  0.57761  0.46017  0.21949  1.0000
  C   C12       1.0  0.42147  0.54066  0.72925  1.0000
  C   C13       1.0  0.52970  0.41666  0.21319  1.0000
  C   C14       1.0  0.46896  0.58465  0.72343  1.0000
  C   C15       1.0  0.39287  0.42962  0.32062  1.0000
  C   C16       1.0  0.60591  0.56975  0.82290  1.0000
  C   C17       1.0  0.42023  0.40004  0.31475  1.0000
  C   C18       1.0  0.57862  0.59937  0.82411  1.0000
  C   C19       1.0  0.45716  0.41700  0.26620  1.0000
  C   C20       1.0  0.54156  0.58306  0.77186  1.0000
  C   C21       1.0  0.41191  0.46576  0.27454  1.0000
  C   C22       1.0  0.58659  0.53407  0.77048  1.0000
  C   C23       1.0  0.49297  0.39740  0.23928  1.0000
  C   C24       1.0  0.50609  0.60350  0.74621  1.0000
  C   C25       1.0  0.39504  0.50319  0.25244  1.0000
  C   C26       1.0  0.60356  0.49678  0.74396  1.0000
  C   C27       1.0  0.00913  0.50457  0.32585  1.0000
  C   C28       1.0  0.98960  0.49339  0.82462  1.0000
  C   C29       1.0  0.04317  0.50273  0.42986  1.0000
  C   C30       1.0  0.95559  0.49565  0.92667  1.0000
  C   C31       1.0  0.20214  0.50539  0.20304  1.0000
  C   C32       1.0  0.79664  0.49567  0.69029  1.0000
  C   C33       1.0  0.50768  0.01198  0.30996  1.0000
  C   C34       1.0  0.49814  0.98804  0.81049  1.0000
  C   C35       1.0  0.50850  0.04483  0.42049  1.0000
  C   C36       1.0  0.49679  0.95503  0.91872  1.0000
  C   C37       1.0  0.52392  0.20842  0.29646  1.0000
  C   C38       1.0  0.48323  0.79295  0.74782  1.0000
  C   C39       1.0  0.43036  0.60170  0.16238  1.0000
  C   C40       1.0  0.56855  0.39753  0.65767  1.0000
  C   C41       1.0  0.40051  0.57461  0.16460  1.0000
  C   C42       1.0  0.59820  0.42485  0.65718  1.0000
  C   C43       1.0  0.41746  0.53804  0.22360  1.0000
  C   C44       1.0  0.58129  0.46168  0.71489  1.0000
  C   C45       1.0  0.46528  0.58174  0.22211  1.0000
  C   C46       1.0  0.53370  0.41764  0.71620  1.0000
  C   C47       1.0  0.60170  0.56752  0.33549  1.0000
  C   C48       1.0  0.39895  0.43346  0.84658  1.0000
  C   C49       1.0  0.57439  0.59712  0.33663  1.0000
  C   C50       1.0  0.42586  0.40352  0.84288  1.0000
  C   C51       1.0  0.53727  0.58077  0.28442  1.0000
  C   C52       1.0  0.46232  0.41925  0.78350  1.0000
  C   C53       1.0  0.58228  0.53196  0.28251  1.0000
  C   C54       1.0  0.41792  0.46860  0.78898  1.0000
  C   C55       1.0  0.50186  0.60093  0.25353  1.0000
  C   C56       1.0  0.49721  0.39866  0.74834  1.0000
  C   C57       1.0  0.59954  0.49509  0.25069  1.0000
  C   C58       1.0  0.40021  0.50534  0.75866  1.0000
  C   C59       1.0  0.98568  0.50500  0.20969  1.0000
  C   C60       1.0  0.01321  0.49291  0.71055  1.0000
  C   C61       1.0  0.95398  0.50499  0.09356  1.0000
  C   C62       1.0  0.04498  0.49336  0.59652  1.0000
  C   C63       1.0  0.78978  0.52331  0.20077  1.0000
  C   C64       1.0  0.20974  0.47771  0.69677  1.0000
  N   N1        1.0  0.53780  0.45569  0.24379  1.0000
  N   N2        1.0  0.46135  0.54547  0.75115  1.0000
  N   N3        1.0  0.45084  0.45679  0.24659  1.0000
  N   N4        1.0  0.54758  0.54340  0.74450  1.0000
  N   N5        1.0  0.51154  0.76894  0.21850  1.0000
  N   N6        1.0  0.48326  0.23069  0.70513  1.0000
  N   N7        1.0  0.22808  0.51899  0.30733  1.0000
  N   N8        1.0  0.77073  0.48114  0.79025  1.0000
  N   N9        1.0  0.45717  0.54261  0.25114  1.0000
  N   N10       1.0  0.54175  0.45699  0.74331  1.0000
  N   N11       1.0  0.54325  0.54111  0.25843  1.0000
  N   N12       1.0  0.45648  0.45892  0.75844  1.0000
  N   N13       1.0  0.49697  0.22889  0.22436  1.0000
  N   N14       1.0  0.51370  0.77203  0.71359  1.0000
  N   N15       1.0  0.76802  0.49613  0.26659  1.0000
  N   N16       1.0  0.23181  0.50159  0.78299  1.0000
  C  Sn1       1.0  0.48549  0.89974  0.35124  1.0000
  C   C65       1.0  0.51077  0.91562  0.23262  1.0000
  C  Sn2       1.0  0.52989  0.89102  0.12066  1.0000
  C  Sn3       1.0  0.52359  0.84969  0.12731  1.0000
  C   C66       1.0  0.49833  0.83383  0.24586  1.0000
  C  Sn4       1.0  0.47920  0.85840  0.35790  1.0000
  O  Te1       1.0  0.46668  0.92489  0.46193  1.0000
  O  Te2       1.0  0.55503  0.90759  0.00321  1.0000
  O  Te3       1.0  0.54243  0.82454  0.01649  1.0000
  O  Te4       1.0  0.45406  0.84186  0.47526  1.0000
  Mg  Mg1       1.0  0.57553  0.86255  0.87912  1.0000
  Mg  Mg2       1.0  0.43517  0.88828  0.59936  1.0000
  C  Sn5       1.0  0.45727  0.13890  0.67212  1.0000
  C   C67       1.0  0.48256  0.15774  0.78527  1.0000
  C  Sn6       1.0  0.51700  0.13946  0.83795  1.0000
  C  Sn7       1.0  0.52637  0.10155  0.77620  1.0000
  C   C68       1.0  0.50109  0.08273  0.66311  1.0000
  C  Sn8       1.0  0.46663  0.10099  0.61036  1.0000
  O  Te5       1.0  0.42299  0.15773  0.62115  1.0000
  O  Te6       1.0  0.54183  0.15888  0.95119  1.0000
  O  Te7       1.0  0.56067  0.08273  0.82727  1.0000
  O  Te8       1.0  0.44182  0.08160  0.49718  1.0000
  Mg  Mg3       1.0  0.58512  0.12113  0.98323  1.0000
  Mg  Mg4       1.0  0.39854  0.11932  0.46500  1.0000
  C  Sn9       1.0  0.46624  0.67608  0.28982  1.0000
  C   C69       1.0  0.49324  0.64946  0.22523  1.0000
  C  Sn10      1.0  0.53040  0.66248  0.17478  1.0000
  C  Sn11      1.0  0.54081  0.70294  0.18928  1.0000
  C   C70       1.0  0.51383  0.72954  0.25386  1.0000
  C  Sn12      1.0  0.47665  0.71655  0.30432  1.0000
  O  Te9       1.0  0.42926  0.66241  0.33949  1.0000
  O  Te10      1.0  0.55689  0.63531  0.11054  1.0000
  O  Te11      1.0  0.57783  0.71660  0.13954  1.0000
  O  Te12      1.0  0.45018  0.74369  0.36856  1.0000
  Mg  Mg5       1.0  0.60373  0.66823  0.05986  1.0000
  Mg  Mg6       1.0  0.40334  0.71080  0.41935  1.0000
  C  Sn13      1.0  0.53111  0.32239  0.77669  1.0000
  C   C71       1.0  0.50448  0.34994  0.71627  1.0000
  C  Sn14      1.0  0.46657  0.33815  0.66782  1.0000
  C  Sn15      1.0  0.45503  0.29798  0.68011  1.0000
  C   C72       1.0  0.48165  0.27046  0.74052  1.0000
  C  Sn16      1.0  0.51957  0.28223  0.78898  1.0000
  O  Te13      1.0  0.56885  0.33484  0.82442  1.0000
  O  Te14      1.0  0.44047  0.36623  0.60775  1.0000
  O  Te15      1.0  0.41725  0.28555  0.63232  1.0000
  O  Te16      1.0  0.54566  0.25418  0.84904  1.0000
  Mg  Mg7       1.0  0.39227  0.33483  0.55835  1.0000
  Mg  Mg8       1.0  0.59385  0.28554  0.89855  1.0000
  C  Sn17      1.0  0.69741  0.45785  0.30437  1.0000
  C   C73       1.0  0.72221  0.48503  0.22635  1.0000
  C  Sn18      1.0  0.70726  0.52027  0.16535  1.0000
  C  Sn19      1.0  0.66668  0.52853  0.18277  1.0000
  C   C74       1.0  0.64192  0.50137  0.26078  1.0000
  C  Sn20      1.0  0.65684  0.46612  0.32180  1.0000
  O  Te17      1.0  0.71300  0.42282  0.36443  1.0000
  O  Te18      1.0  0.73262  0.54697  0.08776  1.0000
  O  Te19      1.0  0.65111  0.56360  0.12263  1.0000
  O  Te20      1.0  0.63151  0.43942  0.39937  1.0000
  Mg  Mg9       1.0  0.69746  0.59067  0.02641  1.0000
  Mg  Mg10      1.0  0.66664  0.39573  0.46084  1.0000
  C  Sn21      1.0  0.32677  0.52903  0.89021  1.0000
  C   C75       1.0  0.35260  0.50448  0.80553  1.0000
  C  Sn22      1.0  0.33858  0.47908  0.68134  1.0000
  C  Sn23      1.0  0.29790  0.47819  0.64086  1.0000
  C   C76       1.0  0.27210  0.50273  0.72549  1.0000
  C  Sn24      1.0  0.28609  0.52814  0.84973  1.0000
  O  Te21      1.0  0.33979  0.55278  0.01391  1.0000
  O  Te22      1.0  0.36497  0.45481  0.59845  1.0000
  O  Te23      1.0  0.28325  0.45299  0.51705  1.0000
  O  Te24      1.0  0.25973  0.55240  0.93258  1.0000
  Mg  Mg11      1.0  0.33082  0.42559  0.43933  1.0000
  Mg  Mg12      1.0  0.29221  0.58023  0.09164  1.0000
  C  Sn25      1.0  0.14241  0.53085  0.41211  1.0000
  C   C77       1.0  0.15923  0.50745  0.28931  1.0000
  C  Sn26      1.0  0.13541  0.48735  0.17442  1.0000
  C  Sn27      1.0  0.09391  0.49074  0.18237  1.0000
  C   C78       1.0  0.07711  0.51413  0.30510  1.0000
  C  Sn28      1.0  0.10091  0.53424  0.42006  1.0000
  O  Te25      1.0  0.16680  0.55068  0.52567  1.0000
  O  Te26      1.0  0.15290  0.46412  0.05281  1.0000
  O  Te27      1.0  0.06952  0.47088  0.06867  1.0000
  O  Te28      1.0  0.08344  0.55746  0.54159  1.0000
  Mg  Mg13      1.0  0.10889  0.44426  0.92598  1.0000
  Mg  Mg14      1.0  0.12906  0.57876  0.66843  1.0000
  C  Sn29      1.0  0.89634  0.52519  0.72414  1.0000
  C   C79       1.0  0.91309  0.50007  0.84072  1.0000
  C  Sn30      1.0  0.89290  0.46617  0.89118  1.0000
  C  Sn31      1.0  0.85520  0.45716  0.82362  1.0000
  C   C80       1.0  0.83848  0.48226  0.70709  1.0000
  C  Sn32      1.0  0.85864  0.51618  0.65659  1.0000
  O  Te29      1.0  0.91705  0.55892  0.67550  1.0000
  O  Te30      1.0  0.90860  0.44010  0.00794  1.0000
  O  Te31      1.0  0.83449  0.42339  0.87237  1.0000
  O  Te32      1.0  0.84133  0.54082  0.53988  1.0000
  Mg  Mg15      1.0  0.86878  0.39758  0.03483  1.0000
  Mg  Mg16      1.0  0.88112  0.58334  0.51283  1.0000
  C  Sn33      1.0  0.48425  0.13594  0.25154  1.0000
  C   C81       1.0  0.51278  0.16222  0.31358  1.0000
  C  Sn34      1.0  0.54826  0.14827  0.37718  1.0000
  C  Sn35      1.0  0.55540  0.10720  0.37872  1.0000
  C   C82       1.0  0.52688  0.08095  0.31670  1.0000
  C  Sn36      1.0  0.49139  0.09488  0.25309  1.0000
  O  Te33      1.0  0.44899  0.15054  0.18855  1.0000
  O  Te34      1.0  0.57633  0.17511  0.43856  1.0000
  O  Te35      1.0  0.59069  0.09262  0.44180  1.0000
  O  Te36      1.0  0.46333  0.06806  0.19171  1.0000
  Mg  Mg17      1.0  0.61980  0.14086  0.51136  1.0000
  Mg  Mg18      1.0  0.41987  0.10228  0.11881  1.0000
  C  Sn37      1.0  0.44499  0.86472  0.81959  1.0000
  C   C83       1.0  0.47113  0.84280  0.72452  1.0000
  C  Sn38      1.0  0.50878  0.85756  0.69100  1.0000
  C  Sn39      1.0  0.52055  0.89501  0.75390  1.0000
  C   C84       1.0  0.49441  0.91691  0.84893  1.0000
  C  Sn40      1.0  0.45676  0.90217  0.88249  1.0000
  O  Te37      1.0  0.40750  0.84938  0.85156  1.0000
  O  Te38      1.0  0.53439  0.83511  0.59561  1.0000
  O  Te39      1.0  0.55807  0.91034  0.72184  1.0000
  O  Te40      1.0  0.43115  0.92459  0.97784  1.0000
  Mg  Mg19      1.0  0.58239  0.86865  0.58585  1.0000
  Mg  Mg20      1.0  0.38316  0.89107  0.98775  1.0000
  C  Sn41      1.0  0.53194  0.32573  0.29939  1.0000
  C   C85       1.0  0.50443  0.34936  0.21931  1.0000
  C  Sn42      1.0  0.46934  0.33296  0.15781  1.0000
  C  Sn43      1.0  0.46156  0.29210  0.17684  1.0000
  C   C86       1.0  0.48906  0.26850  0.25691  1.0000
  C  Sn44      1.0  0.52417  0.28487  0.31842  1.0000
  O  Te41      1.0  0.56683  0.34276  0.35991  1.0000
  O  Te42      1.0  0.44229  0.35716  0.07815  1.0000
  O  Te43      1.0  0.42664  0.27508  0.11624  1.0000
  O  Te44      1.0  0.55121  0.26069  0.39807  1.0000
  Mg  Mg21      1.0  0.39897  0.32023  0.01696  1.0000
  Mg  Mg22      1.0  0.59452  0.29760  0.45937  1.0000
  C  Sn45      1.0  0.54745  0.67606  0.68224  1.0000
  C   C87       1.0  0.52093  0.65193  0.76733  1.0000
  C  Sn46      1.0  0.48586  0.66723  0.82797  1.0000
  C  Sn47      1.0  0.47710  0.70750  0.80295  1.0000
  C   C88       1.0  0.50360  0.73162  0.71788  1.0000
  C  Sn48      1.0  0.53869  0.71633  0.65722  1.0000
  O  Te45      1.0  0.58233  0.66013  0.62269  1.0000
  O  Te46      1.0  0.45981  0.64253  0.91271  1.0000
  O  Te47      1.0  0.44218  0.72342  0.86259  1.0000
  O  Te48      1.0  0.56472  0.74102  0.57250  1.0000
  Mg  Mg23      1.0  0.41608  0.67796  0.97023  1.0000
  Mg  Mg24      1.0  0.60845  0.70561  0.51485  1.0000
  C  Sn49      1.0  0.30294  0.54955  0.32542  1.0000
  C   C89       1.0  0.27380  0.52465  0.25854  1.0000
  C  Sn50      1.0  0.28334  0.48714  0.20071  1.0000
  C  Sn51      1.0  0.32281  0.47422  0.21000  1.0000
  C   C90       1.0  0.35192  0.49910  0.27687  1.0000
  C  Sn52      1.0  0.34242  0.53663  0.33471  1.0000
  O  Te49      1.0  0.29274  0.58693  0.38250  1.0000
  O  Te50      1.0  0.25370  0.46278  0.13431  1.0000
  O  Te51      1.0  0.33299  0.43680  0.15285  1.0000
  O  Te52      1.0  0.37203  0.56097  0.40110  1.0000
  Mg  Mg25      1.0  0.28222  0.41442  0.07292  1.0000
  Mg  Mg26      1.0  0.34353  0.60934  0.46261  1.0000
  C  Sn53      1.0  0.70461  0.52820  0.71957  1.0000
  C   C91       1.0  0.72648  0.49898  0.79753  1.0000
  C  Sn54      1.0  0.70859  0.46340  0.84268  1.0000
  C  Sn55      1.0  0.66800  0.45688  0.80913  1.0000
  C   C92       1.0  0.64615  0.48609  0.73119  1.0000
  C  Sn56      1.0  0.66402  0.52168  0.68602  1.0000
  O  Te53      1.0  0.72310  0.56354  0.67551  1.0000
  O  Te54      1.0  0.73105  0.43464  0.92055  1.0000
  O  Te55      1.0  0.64951  0.42151  0.85327  1.0000
  O  Te56      1.0  0.64158  0.55043  0.60818  1.0000
  Mg  Mg27      1.0  0.69255  0.39134  0.95667  1.0000
  Mg  Mg28      1.0  0.68005  0.59373  0.57192  1.0000
  C  Sn57      1.0  0.86376  0.49604  0.32788  1.0000
  C   C93       1.0  0.83857  0.52337  0.25577  1.0000
  C  Sn58      1.0  0.85130  0.54649  0.12363  1.0000
  C  Sn59      1.0  0.89002  0.54219  0.06222  1.0000
  C   C94       1.0  0.91518  0.51488  0.13430  1.0000
  C  Sn60      1.0  0.90248  0.49174  0.26647  1.0000
  O  Te57      1.0  0.85040  0.47323  0.45986  1.0000
  O  Te58      1.0  0.82558  0.57362  0.05360  1.0000
  O  Te59      1.0  0.90500  0.56644  0.93014  1.0000
  O  Te60      1.0  0.92817  0.46462  0.33647  1.0000
  Mg  Mg29      1.0  0.85904  0.59933  0.87608  1.0000
  Mg  Mg30      1.0  0.89638  0.44030  0.51392  1.0000
  C  Sn61      1.0  0.11217  0.44223  0.62779  1.0000
  C   C95       1.0  0.08730  0.47064  0.69408  1.0000
  C  Sn62      1.0  0.10285  0.50566  0.76024  1.0000
  C  Sn63      1.0  0.14412  0.51243  0.76005  1.0000
  C   C96       1.0  0.16896  0.48403  0.69377  1.0000
  C  Sn64      1.0  0.15344  0.44899  0.62760  1.0000
  O  Te61      1.0  0.09598  0.40743  0.56230  1.0000
  O  Te62      1.0  0.07739  0.53363  0.82587  1.0000
  O  Te63      1.0  0.16030  0.54725  0.82562  1.0000
  O  Te64      1.0  0.17887  0.42104  0.56198  1.0000
  Mg  Mg31      1.0  0.11355  0.57640  0.90079  1.0000
  Mg  Mg32      1.0  0.14274  0.37827  0.48695  1.0000
