data_image0
_chemical_formula_structural       H24C60N12C2Sn2C2HTe2HMgC2Sn2C2HTe2HMgC2Sn2C2HTe2HMgC2Sn2C2HTe2HMgC2Sn2C2HTe2HMgC2Sn2C2HTe2HMgC2Sn2C2HTe2HMgC2Sn2C2HTe2HMgC2Sn2C2HTe2HMgC2Sn2C2HTe2HMgC2Sn2C2HTe2HMgC2Sn2C2HTe2HMgC2Sn2C2HTe2HMgC2Sn2C2HTe2HMgC2Sn2C2HTe2HMgC2Sn2C2HTe2HMgC2Sn2C2HTe2HMgC2Sn2C2HTe2HMgC2Sn2C2HTe2HMgC2Sn2C2HTe2HMgC2Sn2C2HTe2HMgC2Sn2C2HTe2HMgC2Sn2C2HTe2HMgC2Sn2C2HTe2HMg
_chemical_formula_sum              "H72 C156 N12 Sn48 Te48 Mg24"
_cell_length_a       53.3831
_cell_length_b       53.6499
_cell_length_c       8.03839
_cell_angle_alpha    98.5788
_cell_angle_beta     101.134
_cell_angle_gamma    119.79

_symmetry_space_group_name_H-M    'P1'
_space_group_IT_number       1

loop_
  _space_group_symop_operation_xyz
  'x, y, z'

loop_
  _atom_site_type_symbol
  _atom_site_label
  _atom_site_symmetry_multiplicity
  _atom_site_fract_x
  _atom_site_fract_y
  _atom_site_fract_z
  _atom_site_occupancy
  H   H1        1.0  0.38396  0.82040  0.07701  1.0000
  H   H2        1.0  0.16640  0.55086  0.16501  1.0000
  H   H3        1.0  0.44325  0.61534  0.12888  1.0000
  H   H4        1.0  0.60313  0.16365  0.13228  1.0000
  H   H5        1.0  0.82365  0.43723  0.15842  1.0000
  H   H6        1.0  0.55319  0.38328  0.14881  1.0000
  H   H7        1.0  0.69324  0.30548  0.28971  1.0000
  H   H8        1.0  0.69492  0.38648  0.29455  1.0000
  H   H9        1.0  0.61338  0.30733  0.28251  1.0000
  H   H10       1.0  0.30729  0.69429  0.27069  1.0000
  H   H11       1.0  0.30758  0.61429  0.26026  1.0000
  H   H12       1.0  0.38856  0.69577  0.27969  1.0000
  H   H13       1.0  0.38527  0.82265  0.58699  1.0000
  H   H14       1.0  0.16295  0.55231  0.61692  1.0000
  H   H15       1.0  0.43330  0.60590  0.60754  1.0000
  H   H16       1.0  0.61414  0.16696  0.66985  1.0000
  H   H17       1.0  0.82258  0.44078  0.64488  1.0000
  H   H18       1.0  0.54666  0.37639  0.64799  1.0000
  H   H19       1.0  0.69461  0.30847  0.78198  1.0000
  H   H20       1.0  0.69273  0.38782  0.78827  1.0000
  H   H21       1.0  0.61291  0.30658  0.77279  1.0000
  H   H22       1.0  0.30797  0.69633  0.77443  1.0000
  H   H23       1.0  0.30626  0.61552  0.76743  1.0000
  H   H24       1.0  0.38818  0.69565  0.78298  1.0000
  C   C1        1.0  0.40514  0.83384  0.18859  1.0000
  C   C2        1.0  0.16130  0.56719  0.22095  1.0000
  C   C3        1.0  0.43319  0.59628  0.18364  1.0000
  C   C4        1.0  0.58890  0.15969  0.22000  1.0000
  C   C5        1.0  0.83505  0.42743  0.22494  1.0000
  C   C6        1.0  0.56977  0.40690  0.22538  1.0000
  C   C7        1.0  0.68180  0.31748  0.28910  1.0000
  C   C8        1.0  0.68292  0.36297  0.29119  1.0000
  C   C9        1.0  0.63698  0.31835  0.28514  1.0000
  C   C10       1.0  0.31934  0.68286  0.27099  1.0000
  C   C11       1.0  0.31963  0.63784  0.26455  1.0000
  C   C12       1.0  0.36492  0.68342  0.27600  1.0000
  C   C13       1.0  0.69785  0.34756  0.28812  1.0000
  C   C14       1.0  0.65253  0.34859  0.28847  1.0000
  C   C15       1.0  0.65149  0.30247  0.28940  1.0000
  C   C16       1.0  0.30404  0.65257  0.26757  1.0000
  C   C17       1.0  0.35027  0.65293  0.26946  1.0000
  C   C18       1.0  0.34977  0.69856  0.27467  1.0000
  C   C19       1.0  0.47646  0.95805  0.24822  1.0000
  C   C20       1.0  0.04021  0.51593  0.24434  1.0000
  C   C21       1.0  0.48787  0.52833  0.19448  1.0000
  C   C22       1.0  0.52351  0.03938  0.24807  1.0000
  C   C23       1.0  0.95910  0.48136  0.25923  1.0000
  C   C24       1.0  0.52202  0.48089  0.22484  1.0000
  C   C25       1.0  0.49201  0.98453  0.25211  1.0000
  C   C26       1.0  0.01404  0.50464  0.25016  1.0000
  C   C27       1.0  0.49918  0.51324  0.20510  1.0000
  C   C28       1.0  0.50866  0.01328  0.25233  1.0000
  C   C29       1.0  0.98535  0.49241  0.25517  1.0000
  C   C30       1.0  0.51127  0.49648  0.21577  1.0000
  C   C31       1.0  0.40711  0.83529  0.69365  1.0000
  C   C32       1.0  0.15984  0.56771  0.70423  1.0000
  C   C33       1.0  0.42549  0.58947  0.68295  1.0000
  C   C34       1.0  0.59609  0.16186  0.73122  1.0000
  C   C35       1.0  0.83445  0.43169  0.71516  1.0000
  C   C36       1.0  0.56251  0.40028  0.72162  1.0000
  C   C37       1.0  0.68247  0.31979  0.78119  1.0000
  C   C38       1.0  0.68158  0.36428  0.78378  1.0000
  C   C39       1.0  0.63655  0.31850  0.77611  1.0000
  C   C40       1.0  0.31950  0.68437  0.77472  1.0000
  C   C41       1.0  0.31881  0.63896  0.77017  1.0000
  C   C42       1.0  0.36457  0.68372  0.77996  1.0000
  C   C43       1.0  0.69756  0.34992  0.78054  1.0000
  C   C44       1.0  0.65109  0.34871  0.77913  1.0000
  C   C45       1.0  0.65222  0.30378  0.78148  1.0000
  C   C46       1.0  0.30372  0.65412  0.77206  1.0000
  C   C47       1.0  0.34936  0.65327  0.77475  1.0000
  C   C48       1.0  0.34992  0.69940  0.77789  1.0000
  C   C49       1.0  0.47961  0.95972  0.75316  1.0000
  C   C50       1.0  0.04015  0.51709  0.75075  1.0000
  C   C51       1.0  0.47803  0.51964  0.70321  1.0000
  C   C52       1.0  0.52654  0.04022  0.73571  1.0000
  C   C53       1.0  0.95868  0.48543  0.75261  1.0000
  C   C54       1.0  0.51156  0.47154  0.72263  1.0000
  C   C55       1.0  0.49507  0.98590  0.75079  1.0000
  C   C56       1.0  0.01392  0.50679  0.75358  1.0000
  C   C57       1.0  0.48886  0.50409  0.70947  1.0000
  C   C58       1.0  0.51169  0.01437  0.74478  1.0000
  C   C59       1.0  0.98511  0.49559  0.75425  1.0000
  C   C60       1.0  0.50073  0.48710  0.71667  1.0000
  N   N1        1.0  0.82168  0.40568  0.29274  1.0000
  N   N2        1.0  0.59785  0.41703  0.30556  1.0000
  N   N3        1.0  0.58638  0.18043  0.30433  1.0000
  N   N4        1.0  0.18115  0.59578  0.27572  1.0000
  N   N5        1.0  0.41114  0.58995  0.24958  1.0000
  N   N6        1.0  0.41384  0.82245  0.30015  1.0000
  N   N7        1.0  0.82147  0.41035  0.78637  1.0000
  N   N8        1.0  0.59106  0.41184  0.79770  1.0000
  N   N9        1.0  0.59054  0.18158  0.79507  1.0000
  N   N10       1.0  0.18111  0.59550  0.78407  1.0000
  N   N11       1.0  0.40562  0.58587  0.76316  1.0000
  N   N12       1.0  0.41596  0.82313  0.79863  1.0000
  C   C61       1.0  0.63573  0.22822  0.23071  1.0000
  C   C62       1.0  0.61163  0.21307  0.29689  1.0000
  C  Sn1       1.0  0.59763  0.22710  0.35733  1.0000
  C  Sn2       1.0  0.60798  0.25685  0.35118  1.0000
  C   C63       1.0  0.63209  0.27181  0.28462  1.0000
  C   C64       1.0  0.64595  0.25757  0.22454  1.0000
  H   H25       1.0  0.64644  0.21720  0.18413  1.0000
  O  Te1       1.0  0.57359  0.21163  0.42310  1.0000
  O  Te2       1.0  0.59438  0.27140  0.41066  1.0000
  H   H26       1.0  0.66459  0.26930  0.17320  1.0000
  Mg  Mg1       1.0  0.56241  0.24099  0.48875  1.0000
  C   C65       1.0  0.74878  0.39463  0.21605  1.0000
  C   C66       1.0  0.73212  0.36831  0.26171  1.0000
  C  Sn3       1.0  0.74636  0.35468  0.33324  1.0000
  C  Sn4       1.0  0.77787  0.36770  0.35943  1.0000
  C   C67       1.0  0.79434  0.39405  0.31343  1.0000
  C   C68       1.0  0.77986  0.40750  0.24190  1.0000
  H   H27       1.0  0.73759  0.40505  0.16079  1.0000
  O  Te3       1.0  0.72937  0.32838  0.37807  1.0000
  O  Te4       1.0  0.79267  0.35455  0.43074  1.0000
  H   H28       1.0  0.79277  0.42789  0.20666  1.0000
  Mg  Mg2       1.0  0.75977  0.31884  0.47096  1.0000
  C   C69       1.0  0.64442  0.40938  0.43625  1.0000
  C   C70       1.0  0.61739  0.40263  0.31931  1.0000
  C  Sn5       1.0  0.59904  0.37532  0.18623  1.0000
  C  Sn6       1.0  0.60797  0.35443  0.17028  1.0000
  C   C71       1.0  0.63505  0.36138  0.28801  1.0000
  C   C72       1.0  0.65325  0.38877  0.42066  1.0000
  H   H29       1.0  0.65849  0.43057  0.53896  1.0000
  O  Te5       1.0  0.57210  0.36895  0.07047  1.0000
  O  Te6       1.0  0.59005  0.32696  0.03852  1.0000
  H   H30       1.0  0.67417  0.39398  0.51125  1.0000
  Mg  Mg3       1.0  0.60879  0.37731  0.91253  1.0000
  C   C73       1.0  0.40350  0.75830  0.39727  1.0000
  C   C74       1.0  0.37312  0.73530  0.31189  1.0000
  C  Sn7       1.0  0.35368  0.74058  0.20191  1.0000
  C  Sn8       1.0  0.36492  0.76945  0.17717  1.0000
  C   C75       1.0  0.39536  0.79231  0.26308  1.0000
  C   C76       1.0  0.41461  0.78678  0.37288  1.0000
  H   H31       1.0  0.41841  0.75403  0.48216  1.0000
  O  Te7       1.0  0.32338  0.71735  0.11767  1.0000
  O  Te8       1.0  0.34599  0.77534  0.06792  1.0000
  H   H32       1.0  0.43814  0.80460  0.43888  1.0000
  Mg  Mg4       1.0  0.35988  0.78516  0.98188  1.0000
  C   C77       1.0  0.25615  0.65250  0.38184  1.0000
  C   C78       1.0  0.27051  0.64099  0.29934  1.0000
  C  Sn9       1.0  0.25363  0.61183  0.18531  1.0000
  C  Sn10      1.0  0.22180  0.59392  0.15352  1.0000
  C   C79       1.0  0.20764  0.60565  0.23661  1.0000
  C   C80       1.0  0.22475  0.63485  0.35051  1.0000
  H   H33       1.0  0.26938  0.67510  0.46990  1.0000
  O  Te9       1.0  0.26834  0.60068  0.10402  1.0000
  O  Te10      1.0  0.20439  0.56471  0.04012  1.0000
  H   H34       1.0  0.21362  0.64376  0.41428  1.0000
  Mg  Mg5       1.0  0.28824  0.60831  0.96046  1.0000
  C   C81       1.0  0.35642  0.60336  0.31339  1.0000
  C   C82       1.0  0.36466  0.63145  0.29070  1.0000
  C  Sn11      1.0  0.39028  0.64779  0.23879  1.0000
  C  Sn12      1.0  0.40794  0.63571  0.20909  1.0000
  C   C83       1.0  0.39950  0.60757  0.23203  1.0000
  C   C84       1.0  0.37381  0.59142  0.28406  1.0000
  H   H35       1.0  0.33654  0.59085  0.35355  1.0000
  O  Te11      1.0  0.39820  0.67583  0.21679  1.0000
  O  Te12      1.0  0.43366  0.65155  0.15707  1.0000
  H   H36       1.0  0.36743  0.56966  0.30150  1.0000
  Mg  Mg6       1.0  0.43522  0.68886  0.14453  1.0000
  C   C85       1.0  0.42204  0.90147  0.08902  1.0000
  C   C86       1.0  0.45018  0.92367  0.21232  1.0000
  C  Sn13      1.0  0.46587  0.91596  0.33215  1.0000
  C  Sn14      1.0  0.45309  0.88544  0.32813  1.0000
  C   C87       1.0  0.42493  0.86339  0.20419  1.0000
  C   C88       1.0  0.40942  0.87136  0.08492  1.0000
  H   H37       1.0  0.46346  0.95639  0.99667  1.0000
  O  Te13      1.0  0.49396  0.93842  0.45450  1.0000
  O  Te14      1.0  0.46829  0.87710  0.44633  1.0000
  H   H38       1.0  0.44106  0.90293  0.98940  1.0000
  Mg  Mg7       1.0  0.50595  0.91586  0.58839  1.0000
  C   C89       1.0  0.08425  0.51027  0.12837  1.0000
  C   C90       1.0  0.07203  0.52329  0.22102  1.0000
  C  Sn15      1.0  0.08986  0.55365  0.31630  1.0000
  C  Sn16      1.0  0.12047  0.57126  0.31857  1.0000
  C   C91       1.0  0.13248  0.55803  0.22535  1.0000
  C   C92       1.0  0.11445  0.52763  0.13049  1.0000
  H   H39       1.0  0.07030  0.48675  0.05489  1.0000
  O  Te15      1.0  0.07729  0.56630  0.40819  1.0000
  O  Te16      1.0  0.13879  0.60166  0.41266  1.0000
  H   H40       1.0  0.12391  0.51756  0.05867  1.0000
  Mg  Mg8       1.0  0.11134  0.60866  0.51711  1.0000
  C   C93       1.0  0.48151  0.58897  0.14714  1.0000
  C   C94       1.0  0.45287  0.58088  0.16011  1.0000
  C  Sn17      1.0  0.43461  0.55394  0.19567  1.0000
  C  Sn18      1.0  0.44530  0.53479  0.21867  1.0000
  C   C95       1.0  0.47399  0.54309  0.20556  1.0000
  C   C96       1.0  0.49207  0.57010  0.16986  1.0000
  H   H41       1.0  0.49551  0.60987  0.11962  1.0000
  O  Te17      1.0  0.40605  0.54620  0.20813  1.0000
  O  Te18      1.0  0.42752  0.50774  0.25440  1.0000
  H   H42       1.0  0.51425  0.57636  0.15995  1.0000
  Mg  Mg9       1.0  0.39021  0.50701  0.25885  1.0000
  C   C97       1.0  0.54158  0.11294  0.31448  1.0000
  C   C98       1.0  0.56743  0.12777  0.26171  1.0000
  C  Sn19      1.0  0.57893  0.11194  0.18852  1.0000
  C  Sn20      1.0  0.56423  0.08070  0.16789  1.0000
  C   C99       1.0  0.53837  0.06607  0.22099  1.0000
  C   C100      1.0  0.52706  0.08212  0.29413  1.0000
  H   H43       1.0  0.53282  0.12535  0.37098  1.0000
  O  Te19      1.0  0.60479  0.12711  0.13655  1.0000
  O  Te20      1.0  0.57523  0.06434  0.09507  1.0000
  H   H44       1.0  0.50703  0.07062  0.33487  1.0000
  Mg  Mg10      1.0  0.61115  0.09504  0.04429  1.0000
  C   C101      1.0  0.90725  0.43649  0.32262  1.0000
  C   C102      1.0  0.92505  0.46061  0.26251  1.0000
  C  Sn21      1.0  0.91322  0.47623  0.19190  1.0000
  C  Sn22      1.0  0.88300  0.46748  0.18150  1.0000
  C   C103      1.0  0.86539  0.44333  0.24211  1.0000
  C   C104      1.0  0.87745  0.42786  0.31247  1.0000
  H   H45       1.0  0.91659  0.42453  0.37715  1.0000
  O  Te21      1.0  0.93130  0.50027  0.13239  1.0000
  O  Te22      1.0  0.87061  0.48270  0.11159  1.0000
  H   H46       1.0  0.86367  0.40920  0.35910  1.0000
  Mg  Mg11      1.0  0.90422  0.51399  0.04774  1.0000
  C   C105      1.0  0.51493  0.42492  0.10648  1.0000
  C   C106      1.0  0.52803  0.45432  0.20945  1.0000
  C  Sn23      1.0  0.55789  0.47045  0.32259  1.0000
  C  Sn24      1.0  0.57491  0.45684  0.33250  1.0000
  C   C107      1.0  0.56160  0.42742  0.22885  1.0000
  C   C108      1.0  0.53170  0.41148  0.11612  1.0000
  H   H47       1.0  0.49180  0.41260  0.01918  1.0000
  O  Te23      1.0  0.57062  0.49980  0.42459  1.0000
  O  Te24      1.0  0.60480  0.47245  0.44441  1.0000
  H   H48       1.0  0.52157  0.38873  0.03633  1.0000
  Mg  Mg12      1.0  0.61215  0.51190  0.55720  1.0000
  C   C109      1.0  0.59890  0.23749  0.86903  1.0000
  C   C110      1.0  0.60334  0.21516  0.79722  1.0000
  C  Sn25      1.0  0.62679  0.22217  0.72303  1.0000
  C  Sn26      1.0  0.64613  0.25210  0.72092  1.0000
  C   C111      1.0  0.64151  0.27429  0.79320  1.0000
  C   C112      1.0  0.61797  0.26703  0.86706  1.0000
  H   H49       1.0  0.58070  0.23188  0.92626  1.0000
  O  Te25      1.0  0.63089  0.19958  0.65181  1.0000
  O  Te26      1.0  0.66975  0.25973  0.64765  1.0000
  H   H50       1.0  0.61455  0.28433  0.92274  1.0000
  Mg  Mg13      1.0  0.66622  0.22107  0.56684  1.0000
  C   C113      1.0  0.76390  0.40550  0.70153  1.0000
  C   C114      1.0  0.78723  0.40156  0.77393  1.0000
  C  Sn27      1.0  0.78117  0.37786  0.84681  1.0000
  C  Sn28      1.0  0.75117  0.35775  0.84697  1.0000
  C   C115      1.0  0.72798  0.36187  0.77410  1.0000
  C   C116      1.0  0.73430  0.38567  0.70157  1.0000
  H   H51       1.0  0.76878  0.42390  0.64532  1.0000
  O  Te27      1.0  0.80476  0.37426  0.91865  1.0000
  O  Te28      1.0  0.74448  0.33386  0.91888  1.0000
  H   H52       1.0  0.71622  0.38870  0.64542  1.0000
  Mg  Mg14      1.0  0.73088  0.28954  0.00124  1.0000
  C   C117      1.0  0.59155  0.36081  0.63302  1.0000
  C   C118      1.0  0.59936  0.38699  0.75457  1.0000
  C  Sn29      1.0  0.62676  0.40307  0.89291  1.0000
  C  Sn30      1.0  0.64667  0.39268  0.90952  1.0000
  C   C119      1.0  0.63866  0.36648  0.78716  1.0000
  C   C120      1.0  0.61118  0.35056  0.64926  1.0000
  H   H53       1.0  0.57030  0.34850  0.52626  1.0000
  O  Te29      1.0  0.58078  0.38041  0.01323  1.0000
  O  Te30      1.0  0.62077  0.35956  0.04649  1.0000
  H   H54       1.0  0.60515  0.33030  0.55511  1.0000
  Mg  Mg15      1.0  0.62083  0.39392  0.17742  1.0000
  C   C121      1.0  0.35167  0.74875  0.66527  1.0000
  C   C122      1.0  0.36263  0.73342  0.74807  1.0000
  C  Sn31      1.0  0.39233  0.74896  0.86287  1.0000
  C  Sn32      1.0  0.41135  0.78043  0.89516  1.0000
  C   C123      1.0  0.40016  0.79556  0.81178  1.0000
  C   C124      1.0  0.37042  0.77980  0.69710  1.0000
  H   H55       1.0  0.32865  0.73656  0.57662  1.0000
  O  Te31      1.0  0.40292  0.73329  0.94444  1.0000
  O  Te32      1.0  0.38769  0.74775  0.00934  1.0000
  H   H56       1.0  0.36193  0.79168  0.63310  1.0000
  Mg  Mg16      1.0  0.39174  0.71638  0.08911  1.0000
  C   C125      1.0  0.23919  0.64520  0.88709  1.0000
  C   C126      1.0  0.21490  0.61643  0.78618  1.0000
  C  Sn33      1.0  0.21972  0.59753  0.67658  1.0000
  C  Sn34      1.0  0.24945  0.60767  0.66816  1.0000
  C   C127      1.0  0.27361  0.63647  0.76974  1.0000
  C   C128      1.0  0.26852  0.65521  0.87892  1.0000
  H   H57       1.0  0.23526  0.65969  0.97164  1.0000
  O  Te33      1.0  0.19520  0.56886  0.57659  1.0000
  O  Te34      1.0  0.25491  0.58923  0.55978  1.0000
  H   H58       1.0  0.28734  0.67747  0.95712  1.0000
  Mg  Mg17      1.0  0.21412  0.55204  0.44867  1.0000
  C   C129      1.0  0.35949  0.59304  0.81108  1.0000
  C   C130      1.0  0.38559  0.59965  0.76492  1.0000
  C  Sn35      1.0  0.40292  0.62678  0.72866  1.0000
  C  Sn36      1.0  0.39391  0.64763  0.73895  1.0000
  C   C131      1.0  0.36777  0.64081  0.78536  1.0000
  C   C132      1.0  0.35058  0.61360  0.82132  1.0000
  H   H59       1.0  0.34620  0.57199  0.83900  1.0000
  O  Te35      1.0  0.42893  0.63302  0.68268  1.0000
  O  Te36      1.0  0.41082  0.67491  0.70344  1.0000
  H   H60       1.0  0.33038  0.60849  0.85717  1.0000
  Mg  Mg18      1.0  0.44449  0.67319  0.64629  1.0000
  C   C133      1.0  0.46377  0.89232  0.84282  1.0000
  C   C134      1.0  0.43300  0.87167  0.75032  1.0000
  C  Sn37      1.0  0.41635  0.88016  0.64412  1.0000
  C  Sn38      1.0  0.43083  0.90989  0.63048  1.0000
  C   C135      1.0  0.46163  0.93038  0.72345  1.0000
  C   C136      1.0  0.47808  0.92165  0.82940  1.0000
  H   H61       1.0  0.47650  0.88557  0.92472  1.0000
  O  Te37      1.0  0.38562  0.85925  0.55265  1.0000
  O  Te38      1.0  0.41473  0.91897  0.52523  1.0000
  H   H62       1.0  0.50191  0.93763  0.90091  1.0000
  Mg  Mg19      1.0  0.37332  0.88233  0.42617  1.0000
  C   C137      1.0  0.10151  0.56551  0.86352  1.0000
  C   C138      1.0  0.07525  0.53777  0.76517  1.0000
  C  Sn39      1.0  0.07685  0.51725  0.64567  1.0000
  C  Sn40      1.0  0.10531  0.52469  0.62457  1.0000
  C   C139      1.0  0.13145  0.55248  0.72368  1.0000
  C   C140      1.0  0.12959  0.57286  0.84284  1.0000
  H   H63       1.0  0.10008  0.58127  0.95580  1.0000
  O  Te39      1.0  0.05038  0.48964  0.54842  1.0000
  O  Te40      1.0  0.10755  0.50459  0.50611  1.0000
  H   H64       1.0  0.14994  0.59432  0.91905  1.0000
  Mg  Mg20      1.0  0.06508  0.46976  0.40354  1.0000
  C   C141      1.0  0.43231  0.52922  0.75443  1.0000
  C   C142      1.0  0.45679  0.53278  0.69835  1.0000
  C  Sn41      1.0  0.47353  0.55755  0.64006  1.0000
  C  Sn42      1.0  0.46557  0.57913  0.63807  1.0000
  C   C143      1.0  0.44105  0.57537  0.69455  1.0000
  C   C144      1.0  0.42444  0.55050  0.75257  1.0000
  H   H65       1.0  0.41947  0.50998  0.79941  1.0000
  O  Te41      1.0  0.49792  0.56075  0.58442  1.0000
  O  Te42      1.0  0.48192  0.60410  0.58052  1.0000
  H   H66       1.0  0.40550  0.54776  0.79609  1.0000
  Mg  Mg21      1.0  0.51327  0.59859  0.51752  1.0000
  C   C145      1.0  0.53530  0.09758  0.78895  1.0000
  C   C146      1.0  0.53938  0.07428  0.73287  1.0000
  C  Sn43      1.0  0.56483  0.08008  0.68122  1.0000
  C  Sn44      1.0  0.58657  0.10977  0.68598  1.0000
  C   C147      1.0  0.58229  0.13292  0.74240  1.0000
  C   C148      1.0  0.55673  0.12687  0.79374  1.0000
  H   H67       1.0  0.51553  0.09290  0.82877  1.0000
  O  Te43      1.0  0.56855  0.05654  0.62549  1.0000
  O  Te44      1.0  0.61222  0.11618  0.63514  1.0000
  H   H68       1.0  0.55359  0.14491  0.83726  1.0000
  Mg  Mg22      1.0  0.60722  0.07655  0.56916  1.0000
  C   C149      1.0  0.90691  0.44155  0.81952  1.0000
  C   C150      1.0  0.92450  0.46499  0.75418  1.0000
  C  Sn45      1.0  0.91243  0.47996  0.67724  1.0000
  C  Sn46      1.0  0.88219  0.47127  0.66573  1.0000
  C   C151      1.0  0.86479  0.44780  0.73160  1.0000
  C   C152      1.0  0.87709  0.43296  0.80828  1.0000
  H   H69       1.0  0.91643  0.43008  0.87894  1.0000
  O  Te45      1.0  0.93031  0.50333  0.61257  1.0000
  O  Te46      1.0  0.86957  0.48586  0.58953  1.0000
  H   H70       1.0  0.86348  0.41483  0.85896  1.0000
  Mg  Mg23      1.0  0.90295  0.51635  0.52023  1.0000
  C   C153      1.0  0.56065  0.46519  0.85305  1.0000
  C   C154      1.0  0.53235  0.45799  0.75066  1.0000
  C  Sn47      1.0  0.51125  0.42908  0.63716  1.0000
  C  Sn48      1.0  0.51866  0.40702  0.62628  1.0000
  C   C155      1.0  0.54702  0.41444  0.72935  1.0000
  C   C156      1.0  0.56798  0.44344  0.84245  1.0000
  H   H71       1.0  0.57686  0.48763  0.94063  1.0000
  O  Te47      1.0  0.48309  0.42226  0.53575  1.0000
  O  Te48      1.0  0.49799  0.37794  0.51398  1.0000
  H   H72       1.0  0.58987  0.44901  0.92179  1.0000
  Mg  Mg24      1.0  0.46254  0.37952  0.40229  1.0000
