data_image0
_chemical_formula_structural       H28C64N16C2Sn2C2HTe2HMgC2Sn2C2HTe2HMgC2Sn2C2HTe2HMgC2Sn2C2HTe2HMgC2Sn2C2HTe2HMgC2Sn2C2HTe2HMgC2Sn2C2HTe2HMgC2Sn2C2HTe2HMgC2Sn2C2HTe2HMgC2Sn2C2HTe2HMgC2Sn2C2HTe2HMgC2Sn2C2HTe2HMgC2Sn2C2HTe2HMgC2Sn2C2HTe2HMgC2Sn2C2HTe2HMgC2Sn2C2HTe2HMg
_chemical_formula_sum              "H60 C128 N16 Sn32 Te32 Mg16"
_cell_length_a       35.0931
_cell_length_b       35.1016
_cell_length_c       8.15403
_cell_angle_alpha    88.7904
_cell_angle_beta     91.1915
_cell_angle_gamma    91.1052

_symmetry_space_group_name_H-M    'P1'
_space_group_IT_number       1

loop_
  _space_group_symop_operation_xyz
  'x, y, z'

loop_
  _atom_site_type_symbol
  _atom_site_label
  _atom_site_symmetry_multiplicity
  _atom_site_fract_x
  _atom_site_fract_y
  _atom_site_fract_z
  _atom_site_occupancy
  H   H1        1.0  0.46158  0.77429  0.33436  1.0000
  H   H2        1.0  0.53028  0.22630  0.40554  1.0000
  H   H3        1.0  0.56644  0.37348  0.11641  1.0000
  H   H4        1.0  0.43258  0.63009  0.12797  1.0000
  H   H5        1.0  0.62330  0.42531  0.13978  1.0000
  H   H6        1.0  0.37589  0.57751  0.12997  1.0000
  H   H7        1.0  0.37050  0.43087  0.37012  1.0000
  H   H8        1.0  0.63033  0.56947  0.37239  1.0000
  H   H9        1.0  0.42101  0.37479  0.35478  1.0000
  H   H10       1.0  0.57905  0.62546  0.36240  1.0000
  H   H11       1.0  0.47624  0.47891  0.22126  1.0000
  H   H12       1.0  0.52242  0.52204  0.23747  1.0000
  H   H13       1.0  0.22515  0.47648  0.07669  1.0000
  H   H14       1.0  0.77549  0.53837  0.16731  1.0000
  H   H15       1.0  0.46319  0.77420  0.81726  1.0000
  H   H16       1.0  0.53706  0.22655  0.85260  1.0000
  H   H17       1.0  0.56602  0.37153  0.62849  1.0000
  H   H18       1.0  0.43098  0.62960  0.62780  1.0000
  H   H19       1.0  0.62267  0.42389  0.64313  1.0000
  H   H20       1.0  0.37396  0.57785  0.63636  1.0000
  H   H21       1.0  0.36952  0.42960  0.86612  1.0000
  H   H22       1.0  0.62869  0.56818  0.87671  1.0000
  H   H23       1.0  0.42086  0.37392  0.85117  1.0000
  H   H24       1.0  0.57751  0.62424  0.86582  1.0000
  H   H25       1.0  0.47448  0.47833  0.71178  1.0000
  H   H26       1.0  0.52144  0.52098  0.73264  1.0000
  H   H27       1.0  0.22239  0.46819  0.59759  1.0000
  H   H28       1.0  0.77370  0.53840  0.64086  1.0000
  C   C1        1.0  0.50361  0.98165  0.23797  1.0000
  C   C2        1.0  0.50441  0.01998  0.24128  1.0000
  C   C3        1.0  0.50284  0.94658  0.24051  1.0000
  C   C4        1.0  0.50481  0.05493  0.25063  1.0000
  C   C5        1.0  0.48856  0.78482  0.28180  1.0000
  C   C6        1.0  0.50992  0.21609  0.31114  1.0000
  C   C7        1.0  0.56490  0.40227  0.16016  1.0000
  C   C8        1.0  0.43423  0.60033  0.16369  1.0000
  C   C9        1.0  0.59375  0.42865  0.17087  1.0000
  C   C10       1.0  0.40551  0.57371  0.16456  1.0000
  C   C11       1.0  0.57696  0.46321  0.23051  1.0000
  C   C12       1.0  0.42238  0.53810  0.22132  1.0000
  C   C13       1.0  0.53081  0.42069  0.21635  1.0000
  C   C14       1.0  0.46845  0.58082  0.22008  1.0000
  C   C15       1.0  0.39973  0.43335  0.33153  1.0000
  C   C16       1.0  0.60048  0.56716  0.33814  1.0000
  C   C17       1.0  0.42575  0.40462  0.32494  1.0000
  C   C18       1.0  0.57424  0.59584  0.33293  1.0000
  C   C19       1.0  0.46113  0.42082  0.27069  1.0000
  C   C20       1.0  0.53830  0.57988  0.28062  1.0000
  C   C21       1.0  0.41794  0.46814  0.27861  1.0000
  C   C22       1.0  0.58157  0.53264  0.28892  1.0000
  C   C23       1.0  0.49531  0.40167  0.24096  1.0000
  C   C24       1.0  0.50405  0.59937  0.24871  1.0000
  C   C25       1.0  0.40108  0.50404  0.25133  1.0000
  C   C26       1.0  0.59814  0.49701  0.26359  1.0000
  C   C27       1.0  0.01902  0.49387  0.25800  1.0000
  C   C28       1.0  0.98074  0.49482  0.26529  1.0000
  C   C29       1.0  0.05392  0.49369  0.24591  1.0000
  C   C30       1.0  0.94573  0.49607  0.26681  1.0000
  C   C31       1.0  0.21510  0.49256  0.18129  1.0000
  C   C32       1.0  0.78464  0.51207  0.23110  1.0000
  C   C33       1.0  0.50547  0.98099  0.73505  1.0000
  C   C34       1.0  0.50522  0.01932  0.73856  1.0000
  C   C35       1.0  0.50545  0.94591  0.73590  1.0000
  C   C36       1.0  0.50433  0.05430  0.74556  1.0000
  C   C37       1.0  0.49084  0.78428  0.76969  1.0000
  C   C38       1.0  0.51107  0.21579  0.79037  1.0000
  C   C39       1.0  0.56427  0.40093  0.66425  1.0000
  C   C40       1.0  0.43251  0.60002  0.66704  1.0000
  C   C41       1.0  0.59299  0.42751  0.67122  1.0000
  C   C42       1.0  0.40355  0.57363  0.67067  1.0000
  C   C43       1.0  0.57601  0.46258  0.72449  1.0000
  C   C44       1.0  0.42042  0.53788  0.72649  1.0000
  C   C45       1.0  0.52990  0.41998  0.71315  1.0000
  C   C46       1.0  0.46679  0.58040  0.72248  1.0000
  C   C47       1.0  0.39862  0.43222  0.82579  1.0000
  C   C48       1.0  0.59893  0.56606  0.84055  1.0000
  C   C49       1.0  0.42490  0.40370  0.81854  1.0000
  C   C50       1.0  0.57267  0.59469  0.83556  1.0000
  C   C51       1.0  0.45993  0.42018  0.76221  1.0000
  C   C52       1.0  0.53684  0.57888  0.78108  1.0000
  C   C53       1.0  0.41651  0.46723  0.77271  1.0000
  C   C54       1.0  0.58024  0.53175  0.78758  1.0000
  C   C55       1.0  0.49430  0.40117  0.73554  1.0000
  C   C56       1.0  0.50273  0.59862  0.74833  1.0000
  C   C57       1.0  0.39957  0.50331  0.75205  1.0000
  C   C58       1.0  0.59712  0.49639  0.75854  1.0000
  C   C59       1.0  0.01768  0.49889  0.75946  1.0000
  C   C60       1.0  0.97940  0.49998  0.76359  1.0000
  C   C61       1.0  0.05260  0.49827  0.74997  1.0000
  C   C62       1.0  0.94438  0.50107  0.76285  1.0000
  C   C63       1.0  0.21328  0.48939  0.68550  1.0000
  C   C64       1.0  0.78327  0.51454  0.72008  1.0000
  N   N1        1.0  0.53848  0.45818  0.25150  1.0000
  N   N2        1.0  0.46094  0.54272  0.24806  1.0000
  N   N3        1.0  0.45528  0.45935  0.24818  1.0000
  N   N4        1.0  0.54383  0.54149  0.26024  1.0000
  N   N5        1.0  0.51427  0.76236  0.22907  1.0000
  N   N6        1.0  0.48879  0.23874  0.22284  1.0000
  N   N7        1.0  0.23824  0.51000  0.28171  1.0000
  N   N8        1.0  0.76090  0.48739  0.29370  1.0000
  N   N9        1.0  0.53742  0.45776  0.74306  1.0000
  N   N10       1.0  0.45898  0.54242  0.75221  1.0000
  N   N11       1.0  0.45370  0.45862  0.73882  1.0000
  N   N12       1.0  0.54250  0.54056  0.75885  1.0000
  N   N13       1.0  0.51680  0.76133  0.72335  1.0000
  N   N14       1.0  0.48552  0.23807  0.72659  1.0000
  N   N15       1.0  0.23687  0.51001  0.77199  1.0000
  N   N16       1.0  0.75998  0.49095  0.79258  1.0000
  C   C65       1.0  0.53157  0.85234  0.19072  1.0000
  C   C66       1.0  0.50315  0.82984  0.26427  1.0000
  C  Sn1       1.0  0.47112  0.84674  0.32839  1.0000
  C  Sn2       1.0  0.46755  0.88692  0.31845  1.0000
  C   C67       1.0  0.49613  0.90918  0.24452  1.0000
  C   C68       1.0  0.52807  0.89198  0.18081  1.0000
  H   H29       1.0  0.55627  0.83903  0.14134  1.0000
  O  Te1       1.0  0.44300  0.82384  0.40152  1.0000
  O  Te2       1.0  0.43583  0.90456  0.38148  1.0000
  H   H30       1.0  0.55006  0.90940  0.12378  1.0000
  Mg  Mg1       1.0  0.40510  0.86118  0.46962  1.0000
  C   C69       1.0  0.53949  0.12145  0.37816  1.0000
  C   C70       1.0  0.51260  0.09850  0.29625  1.0000
  C  Sn3       1.0  0.48323  0.11504  0.20280  1.0000
  C  Sn4       1.0  0.48081  0.15531  0.19133  1.0000
  C   C71       1.0  0.50787  0.17802  0.27364  1.0000
  C   C72       1.0  0.53714  0.16117  0.36686  1.0000
  H   H31       1.0  0.56215  0.10841  0.45022  1.0000
  O  Te3       1.0  0.45659  0.09169  0.12180  1.0000
  O  Te4       1.0  0.45176  0.17259  0.09872  1.0000
  H   H32       1.0  0.55797  0.17895  0.43018  1.0000
  Mg  Mg2       1.0  0.42223  0.12866  0.01074  1.0000
  C   C73       1.0  0.47567  0.67207  0.34521  1.0000
  C   C74       1.0  0.49714  0.64663  0.25741  1.0000
  C  Sn5       1.0  0.52744  0.66001  0.16230  1.0000
  C  Sn6       1.0  0.53635  0.69960  0.15522  1.0000
  C   C75       1.0  0.51471  0.72482  0.24360  1.0000
  C   C76       1.0  0.48445  0.71113  0.33835  1.0000
  H   H33       1.0  0.45227  0.66149  0.41860  1.0000
  O  Te5       1.0  0.54858  0.63420  0.07530  1.0000
  O  Te6       1.0  0.56648  0.71373  0.06117  1.0000
  H   H34       1.0  0.46785  0.73083  0.40640  1.0000
  Mg  Mg3       1.0  0.59167  0.66246  0.96438  1.0000
  C   C77       1.0  0.45737  0.30891  0.15386  1.0000
  C   C78       1.0  0.48458  0.28335  0.21408  1.0000
  C  Sn7       1.0  0.51710  0.29668  0.29811  1.0000
  C  Sn8       1.0  0.52241  0.33636  0.32216  1.0000
  C   C79       1.0  0.49501  0.36170  0.26155  1.0000
  C   C80       1.0  0.46257  0.34805  0.17758  1.0000
  H   H35       1.0  0.43226  0.29835  0.08898  1.0000
  O  Te7       1.0  0.54401  0.27075  0.35741  1.0000
  O  Te8       1.0  0.55465  0.35046  0.40577  1.0000
  H   H36       1.0  0.44150  0.36785  0.13107  1.0000
  Mg  Mg4       1.0  0.58325  0.30382  0.46350  1.0000
  C   C81       1.0  0.69370  0.52494  0.16765  1.0000
  C   C82       1.0  0.71751  0.50092  0.26026  1.0000
  C  Sn9       1.0  0.70194  0.47176  0.35865  1.0000
  C  Sn10      1.0  0.66178  0.46661  0.36414  1.0000
  C   C83       1.0  0.63821  0.49077  0.27094  1.0000
  C   C84       1.0  0.65409  0.51987  0.17294  1.0000
  H   H37       1.0  0.70598  0.54744  0.09176  1.0000
  O  Te9       1.0  0.72614  0.44803  0.45045  1.0000
  O  Te10      1.0  0.64546  0.43768  0.46139  1.0000
  H   H38       1.0  0.63565  0.53844  0.10117  1.0000
  Mg  Mg5       1.0  0.69032  0.41267  0.56435  1.0000
  C   C85       1.0  0.32648  0.47229  0.17127  1.0000
  C   C86       1.0  0.35337  0.49922  0.22651  1.0000
  C  Sn11      1.0  0.34183  0.53066  0.31390  1.0000
  C  Sn12      1.0  0.30262  0.53513  0.34645  1.0000
  C   C87       1.0  0.27595  0.50801  0.29076  1.0000
  C   C88       1.0  0.28781  0.47667  0.20338  1.0000
  H   H39       1.0  0.33566  0.44802  0.10374  1.0000
  O  Te11      1.0  0.36906  0.55731  0.36814  1.0000
  O  Te12      1.0  0.29031  0.56627  0.43357  1.0000
  H   H40       1.0  0.26699  0.45581  0.16072  1.0000
  Mg  Mg6       1.0  0.33824  0.59494  0.48188  1.0000
  C   C89       1.0  0.11969  0.46249  0.11096  1.0000
  C   C90       1.0  0.09769  0.48445  0.21256  1.0000
  C  Sn13      1.0  0.11481  0.51326  0.30582  1.0000
  C  Sn14      1.0  0.15469  0.52015  0.29692  1.0000
  C   C91       1.0  0.17645  0.49804  0.19482  1.0000
  C   C92       1.0  0.15903  0.46927  0.10206  1.0000
  H   H41       1.0  0.10621  0.44024  0.03912  1.0000
  O  Te13      1.0  0.09241  0.53493  0.40673  1.0000
  O  Te14      1.0  0.17253  0.54878  0.38877  1.0000
  H   H42       1.0  0.17606  0.45229  0.02334  1.0000
  Mg  Mg7       1.0  0.12986  0.57068  0.50831  1.0000
  C   C93       1.0  0.85968  0.53918  0.16284  1.0000
  C   C94       1.0  0.83111  0.51365  0.21457  1.0000
  C  Sn15      1.0  0.84063  0.48023  0.30077  1.0000
  C  Sn16      1.0  0.87948  0.47231  0.33568  1.0000
  C   C95       1.0  0.90785  0.49804  0.28350  1.0000
  C   C96       1.0  0.89802  0.53139  0.19729  1.0000
  H   H43       1.0  0.85207  0.56499  0.09622  1.0000
  O  Te15      1.0  0.81173  0.45503  0.35149  1.0000
  O  Te16      1.0  0.88979  0.43912  0.42168  1.0000
  H   H44       1.0  0.92014  0.55116  0.15735  1.0000
  Mg  Mg8       1.0  0.84010  0.41359  0.46494  1.0000
  C   C97       1.0  0.46294  0.85797  0.82945  1.0000
  C   C98       1.0  0.48691  0.83058  0.76790  1.0000
  C  Sn17      1.0  0.52138  0.84160  0.69668  1.0000
  C  Sn18      1.0  0.53198  0.88078  0.68713  1.0000
  C   C99       1.0  0.50782  0.90796  0.74917  1.0000
  C   C100      1.0  0.47338  0.89662  0.82014  1.0000
  H   H45       1.0  0.43631  0.84920  0.88445  1.0000
  O  Te17      1.0  0.54499  0.81386  0.63573  1.0000
  O  Te18      1.0  0.56628  0.89258  0.61663  1.0000
  H   H46       1.0  0.45484  0.91784  0.86788  1.0000
  Mg  Mg9       1.0  0.58884  0.84409  0.55077  1.0000
  C   C101      1.0  0.54240  0.12157  0.84444  1.0000
  C   C102      1.0  0.51273  0.09817  0.78554  1.0000
  C  Sn19      1.0  0.47990  0.11420  0.71571  1.0000
  C  Sn20      1.0  0.47682  0.15442  0.70478  1.0000
  C   C103      1.0  0.50667  0.17759  0.76395  1.0000
  C   C104      1.0  0.53939  0.16125  0.83364  1.0000
  H   H47       1.0  0.56772  0.10893  0.89828  1.0000
  O  Te19      1.0  0.45052  0.09040  0.65752  1.0000
  O  Te20      1.0  0.44434  0.17120  0.63551  1.0000
  H   H48       1.0  0.56237  0.17938  0.87914  1.0000
  Mg  Mg10      1.0  0.41195  0.12678  0.57347  1.0000
  C   C105      1.0  0.47617  0.67218  0.84203  1.0000
  C   C106      1.0  0.49687  0.64608  0.75435  1.0000
  C  Sn21      1.0  0.52733  0.65858  0.65822  1.0000
  C  Sn22      1.0  0.53720  0.69796  0.65000  1.0000
  C   C107      1.0  0.51633  0.72384  0.73827  1.0000
  C   C108      1.0  0.48589  0.71102  0.83404  1.0000
  H   H49       1.0  0.45264  0.66227  0.91621  1.0000
  O  Te21      1.0  0.54770  0.63213  0.57135  1.0000
  O  Te22      1.0  0.56752  0.71122  0.55492  1.0000
  H   H50       1.0  0.46989  0.73123  0.90200  1.0000
  Mg  Mg11      1.0  0.58667  0.66411  0.45877  1.0000
  C   C109      1.0  0.52269  0.32803  0.84653  1.0000
  C   C110      1.0  0.50132  0.35385  0.75183  1.0000
  C  Sn23      1.0  0.47147  0.34083  0.65037  1.0000
  C  Sn24      1.0  0.46293  0.30121  0.64389  1.0000
  C   C111      1.0  0.48447  0.27561  0.73919  1.0000
  C   C112      1.0  0.51428  0.28895  0.84026  1.0000
  H   H51       1.0  0.54575  0.33835  0.92480  1.0000
  O  Te23      1.0  0.45041  0.36701  0.55652  1.0000
  O  Te24      1.0  0.43324  0.28742  0.54358  1.0000
  H   H52       1.0  0.53081  0.26896  0.91365  1.0000
  Mg  Mg12      1.0  0.41273  0.33432  0.43869  1.0000
  C   C113      1.0  0.69205  0.52772  0.67000  1.0000
  C   C114      1.0  0.71630  0.50344  0.75894  1.0000
  C  Sn25      1.0  0.70132  0.47258  0.84921  1.0000
  C  Sn26      1.0  0.66131  0.46597  0.85019  1.0000
  C   C115      1.0  0.63729  0.49041  0.76071  1.0000
  C   C116      1.0  0.65258  0.52122  0.67085  1.0000
  H   H53       1.0  0.70387  0.55155  0.60039  1.0000
  O  Te25      1.0  0.72596  0.44861  0.93743  1.0000
  O  Te26      1.0  0.64559  0.43533  0.93931  1.0000
  H   H54       1.0  0.63380  0.54000  0.60191  1.0000
  Mg  Mg13      1.0  0.68614  0.41547  0.04010  1.0000
  C   C117      1.0  0.30399  0.47425  0.65463  1.0000
  C   C118      1.0  0.28048  0.49713  0.74563  1.0000
  C  Sn27      1.0  0.29628  0.52607  0.84211  1.0000
  C  Sn28      1.0  0.33637  0.53215  0.84729  1.0000
  C   C119      1.0  0.35964  0.50912  0.75571  1.0000
  C   C120      1.0  0.34353  0.48023  0.65962  1.0000
  H   H55       1.0  0.29153  0.45191  0.58021  1.0000
  O  Te27      1.0  0.27237  0.54866  0.93231  1.0000
  O  Te28      1.0  0.35291  0.56088  0.94264  1.0000
  H   H56       1.0  0.36174  0.46254  0.58909  1.0000
  Mg  Mg14      1.0  0.30368  0.58901  0.04391  1.0000
  C   C121      1.0  0.12663  0.52928  0.81002  1.0000
  C   C122      1.0  0.09785  0.50617  0.74161  1.0000
  C  Sn29      1.0  0.10712  0.47403  0.65363  1.0000
  C  Sn30      1.0  0.14596  0.46491  0.63402  1.0000
  C   C123      1.0  0.17454  0.48819  0.70303  1.0000
  C   C124      1.0  0.16494  0.52030  0.79079  1.0000
  H   H57       1.0  0.11920  0.55411  0.87801  1.0000
  O  Te29      1.0  0.07802  0.45126  0.58603  1.0000
  O  Te30      1.0  0.15603  0.43294  0.54672  1.0000
  H   H58       1.0  0.18722  0.53817  0.84384  1.0000
  Mg  Mg15      1.0  0.10611  0.41072  0.47752  1.0000
  C   C125      1.0  0.84937  0.47331  0.83068  1.0000
  C   C126      1.0  0.82785  0.50331  0.76540  1.0000
  C  Sn31      1.0  0.84580  0.53420  0.68606  1.0000
  C  Sn32      1.0  0.88604  0.53498  0.67196  1.0000
  C   C127      1.0  0.90731  0.50482  0.73759  1.0000
  C   C128      1.0  0.88906  0.47405  0.81678  1.0000
  H   H59       1.0  0.83525  0.44949  0.89188  1.0000
  O  Te31      1.0  0.82387  0.56394  0.62158  1.0000
  O  Te32      1.0  0.90470  0.56550  0.59323  1.0000
  H   H60       1.0  0.90572  0.45081  0.86722  1.0000
  Mg  Mg16      1.0  0.86242  0.59928  0.52532  1.0000
