data_image0
_chemical_formula_structural       H40C112N16C2Sn2C2HTe2HMgC2Sn2C2HTe2HMgC2Sn2C2HTe2HMgC2Sn2C2HTe2HMgC2Sn2C2HTe2HMgC2Sn2C2HTe2HMgC2Sn2C2HTe2HMgC2Sn2C2HTe2HMgC2Sn2C2HTe2HMgC2Sn2C2HTe2HMgC2Sn2C2HTe2HMgC2Sn2C2HTe2HMgC2Sn2C2HTe2HMgC2Sn2C2HTe2HMgC2Sn2C2HTe2HMgC2Sn2C2HTe2HMgC2Sn2C2HTe2HMgC2Sn2C2HTe2HMgC2Sn2C2HTe2HMgC2Sn2C2HTe2HMgC2Sn2C2HTe2HMgC2Sn2C2HTe2HMgC2Sn2C2HTe2HMgC2Sn2C2HTe2HMgC2Sn2C2HTe2HMgC2Sn2C2HTe2HMgC2Sn2C2HTe2HMgC2Sn2C2HTe2HMgC2Sn2C2HTe2HMgC2Sn2C2HTe2HMgC2Sn2C2HTe2HMgC2Sn2C2HTe2HMg
_chemical_formula_sum              "H104 C240 N16 Sn64 Te64 Mg32"
_cell_length_a       46.686
_cell_length_b       43.5384
_cell_length_c       7.92377
_cell_angle_alpha    90.535
_cell_angle_beta     94.3963
_cell_angle_gamma    89.7532

_symmetry_space_group_name_H-M    'P1'
_space_group_IT_number       1

loop_
  _space_group_symop_operation_xyz
  'x, y, z'

loop_
  _atom_site_type_symbol
  _atom_site_label
  _atom_site_symmetry_multiplicity
  _atom_site_fract_x
  _atom_site_fract_y
  _atom_site_fract_z
  _atom_site_occupancy
  H   H1        1.0  0.56399  0.97519  0.24485  1.0000
  H   H2        1.0  0.43941  0.97410  0.74425  1.0000
  H   H3        1.0  0.06294  0.47450  0.24905  1.0000
  H   H4        1.0  0.93775  0.47470  0.75261  1.0000
  H   H5        1.0  0.43869  0.03012  0.74750  1.0000
  H   H6        1.0  0.56342  0.03136  0.24712  1.0000
  H   H7        1.0  0.93836  0.53070  0.74899  1.0000
  H   H8        1.0  0.06364  0.53046  0.24416  1.0000
  H   H9        1.0  0.60472  0.16835  0.47294  1.0000
  H   H10       1.0  0.39579  0.16689  0.52797  1.0000
  H   H11       1.0  0.10539  0.66756  0.46470  1.0000
  H   H12       1.0  0.89776  0.66793  0.52284  1.0000
  H   H13       1.0  0.39645  0.83770  0.52522  1.0000
  H   H14       1.0  0.60611  0.83360  0.42007  1.0000
  H   H15       1.0  0.89423  0.33888  0.54367  1.0000
  H   H16       1.0  0.10302  0.33579  0.47072  1.0000
  H   H17       1.0  0.56261  0.96844  0.75084  1.0000
  H   H18       1.0  0.43836  0.96834  0.24719  1.0000
  H   H19       1.0  0.06204  0.46945  0.75409  1.0000
  H   H20       1.0  0.93754  0.46986  0.25256  1.0000
  H   H21       1.0  0.43828  0.02459  0.24844  1.0000
  H   H22       1.0  0.56314  0.02452  0.74693  1.0000
  H   H23       1.0  0.93820  0.52604  0.24960  1.0000
  H   H24       1.0  0.06297  0.52549  0.74810  1.0000
  H   H25       1.0  0.61005  0.15834  0.97898  1.0000
  H   H26       1.0  0.38930  0.15660  0.03114  1.0000
  H   H27       1.0  0.11085  0.65943  0.96997  1.0000
  H   H28       1.0  0.89125  0.65880  0.02361  1.0000
  H   H29       1.0  0.38785  0.83849  0.00726  1.0000
  H   H30       1.0  0.60784  0.83022  0.98400  1.0000
  H   H31       1.0  0.88671  0.33892  0.01879  1.0000
  H   H32       1.0  0.10918  0.33456  0.98857  1.0000
  H   H33       1.0  0.50189  0.89697  0.00228  1.0000
  H   H34       1.0  0.99882  0.39693  0.01017  1.0000
  H   H35       1.0  0.49989  0.10856  0.00492  1.0000
  H   H36       1.0  0.00142  0.60837  0.99527  1.0000
  H   H37       1.0  0.49930  0.89064  0.50446  1.0000
  H   H38       1.0  0.99841  0.39188  0.50945  1.0000
  H   H39       1.0  0.50012  0.10216  0.50395  1.0000
  H   H40       1.0  0.00128  0.60339  0.49656  1.0000
  C   C1        1.0  0.52607  0.93744  0.06867  1.0000
  C   C2        1.0  0.47697  0.93681  0.92849  1.0000
  C   C3        1.0  0.02405  0.43676  0.07671  1.0000
  C   C4        1.0  0.97500  0.43727  0.93590  1.0000
  C   C5        1.0  0.47602  0.06813  0.92914  1.0000
  C   C6        1.0  0.52465  0.06851  0.07449  1.0000
  C   C7        1.0  0.97673  0.56830  0.92381  1.0000
  C   C8        1.0  0.02546  0.56801  0.06806  1.0000
  C   C9        1.0  0.52529  0.97008  0.07760  1.0000
  C   C10       1.0  0.47741  0.96950  0.91785  1.0000
  C   C11       1.0  0.02404  0.46951  0.08273  1.0000
  C   C12       1.0  0.97607  0.46983  0.92347  1.0000
  C   C13       1.0  0.47684  0.03544  0.91932  1.0000
  C   C14       1.0  0.52460  0.03582  0.08036  1.0000
  C   C15       1.0  0.97690  0.53558  0.91807  1.0000
  C   C16       1.0  0.02480  0.53537  0.07760  1.0000
  C   C17       1.0  0.54719  0.98744  0.17027  1.0000
  C   C18       1.0  0.45561  0.98655  0.82299  1.0000
  C   C19       1.0  0.04632  0.48674  0.17308  1.0000
  C   C20       1.0  0.95443  0.48702  0.82823  1.0000
  C   C21       1.0  0.45528  0.01796  0.82420  1.0000
  C   C22       1.0  0.54685  0.01883  0.17181  1.0000
  C   C23       1.0  0.95480  0.51839  0.82594  1.0000
  C   C24       1.0  0.04672  0.51814  0.17046  1.0000
  C   C25       1.0  0.72296  0.22876  0.67332  1.0000
  C   C26       1.0  0.27736  0.22889  0.33757  1.0000
  C   C27       1.0  0.22229  0.73143  0.65281  1.0000
  C   C28       1.0  0.78066  0.73207  0.32895  1.0000
  C   C29       1.0  0.27879  0.77189  0.35630  1.0000
  C   C30       1.0  0.72409  0.77245  0.62980  1.0000
  C   C31       1.0  0.77840  0.27046  0.37497  1.0000
  C   C32       1.0  0.22035  0.26907  0.63810  1.0000
  C   C33       1.0  0.74357  0.24404  0.57884  1.0000
  C   C34       1.0  0.25656  0.24394  0.43404  1.0000
  C   C35       1.0  0.24302  0.74649  0.55825  1.0000
  C   C36       1.0  0.76051  0.74776  0.42659  1.0000
  C   C37       1.0  0.25884  0.75721  0.45785  1.0000
  C   C38       1.0  0.74496  0.75857  0.52957  1.0000
  C   C39       1.0  0.75890  0.25510  0.47671  1.0000
  C   C40       1.0  0.24057  0.25452  0.53545  1.0000
  C   C41       1.0  0.62372  0.16219  0.40593  1.0000
  C   C42       1.0  0.37689  0.16146  0.59668  1.0000
  C   C43       1.0  0.12425  0.66221  0.39440  1.0000
  C   C44       1.0  0.87870  0.66279  0.59080  1.0000
  C   C45       1.0  0.37774  0.84283  0.59719  1.0000
  C   C46       1.0  0.62581  0.84182  0.36777  1.0000
  C   C47       1.0  0.87538  0.34391  0.61464  1.0000
  C   C48       1.0  0.12176  0.34059  0.39925  1.0000
  C   C49       1.0  0.52401  0.93075  0.57574  1.0000
  C   C50       1.0  0.47588  0.93121  0.42801  1.0000
  C   C51       1.0  0.02336  0.43196  0.57854  1.0000
  C   C52       1.0  0.97492  0.43254  0.43442  1.0000
  C   C53       1.0  0.47591  0.06184  0.43274  1.0000
  C   C54       1.0  0.52492  0.06192  0.56983  1.0000
  C   C55       1.0  0.97648  0.56325  0.42889  1.0000
  C   C56       1.0  0.02540  0.56293  0.56678  1.0000
  C   C57       1.0  0.52412  0.96345  0.58110  1.0000
  C   C58       1.0  0.47670  0.96374  0.41772  1.0000
  C   C59       1.0  0.02350  0.46465  0.58446  1.0000
  C   C60       1.0  0.97591  0.46508  0.42279  1.0000
  C   C61       1.0  0.47669  0.02926  0.41938  1.0000
  C   C62       1.0  0.52457  0.02928  0.57824  1.0000
  C   C63       1.0  0.97671  0.53063  0.41945  1.0000
  C   C64       1.0  0.02456  0.53035  0.57822  1.0000
  C   C65       1.0  0.54617  0.98070  0.67366  1.0000
  C   C66       1.0  0.45488  0.98083  0.32318  1.0000
  C   C67       1.0  0.04567  0.48178  0.67666  1.0000
  C   C68       1.0  0.95423  0.48226  0.32765  1.0000
  C   C69       1.0  0.45483  0.01220  0.32426  1.0000
  C   C70       1.0  0.54646  0.01211  0.67168  1.0000
  C   C71       1.0  0.95459  0.51362  0.32628  1.0000
  C   C72       1.0  0.04622  0.51315  0.67319  1.0000
  C   C73       1.0  0.72422  0.22580  0.84742  1.0000
  C   C74       1.0  0.27578  0.22581  0.16303  1.0000
  C   C75       1.0  0.22369  0.72852  0.82694  1.0000
  C   C76       1.0  0.77829  0.72830  0.15504  1.0000
  C   C77       1.0  0.27599  0.77313  0.18141  1.0000
  C   C78       1.0  0.72510  0.77199  0.80458  1.0000
  C   C79       1.0  0.77572  0.27172  0.20015  1.0000
  C   C80       1.0  0.22290  0.27026  0.81317  1.0000
  C   C81       1.0  0.74315  0.24190  0.96724  1.0000
  C   C82       1.0  0.25657  0.24173  0.04461  1.0000
  C   C83       1.0  0.24286  0.74434  0.94691  1.0000
  C   C84       1.0  0.75895  0.74410  0.03720  1.0000
  C   C85       1.0  0.25647  0.75623  0.06832  1.0000
  C   C86       1.0  0.74503  0.75559  0.91649  1.0000
  C   C87       1.0  0.75660  0.25426  0.08767  1.0000
  C   C88       1.0  0.24267  0.25353  0.92480  1.0000
  C   C89       1.0  0.62761  0.15115  0.90283  1.0000
  C   C90       1.0  0.37166  0.14936  0.10538  1.0000
  C   C91       1.0  0.12838  0.65224  0.89356  1.0000
  C   C92       1.0  0.87347  0.65153  0.09675  1.0000
  C   C93       1.0  0.37058  0.84690  0.08222  1.0000
  C   C94       1.0  0.62540  0.83923  0.91417  1.0000
  C   C95       1.0  0.86965  0.34678  0.09686  1.0000
  C   C96       1.0  0.12658  0.34296  0.91548  1.0000
  C   C97       1.0  0.50116  0.98621  0.99838  1.0000
  C   C98       1.0  0.00026  0.48607  0.00189  1.0000
  C   C99       1.0  0.50086  0.01921  0.99937  1.0000
  C   C100      1.0  0.00066  0.51905  0.99919  1.0000
  C   C101      1.0  0.50158  0.92194  0.00043  1.0000
  C   C102      1.0  0.99924  0.42188  0.00800  1.0000
  C   C103      1.0  0.50014  0.08356  0.00331  1.0000
  C   C104      1.0  0.00122  0.58339  0.99561  1.0000
  C   C105      1.0  0.50058  0.97998  0.49847  1.0000
  C   C106      1.0  0.99999  0.48124  0.50206  1.0000
  C   C107      1.0  0.50068  0.01289  0.49813  1.0000
  C   C108      1.0  0.00046  0.51412  0.49955  1.0000
  C   C109      1.0  0.49968  0.91562  0.50288  1.0000
  C   C110      1.0  0.99885  0.41688  0.50788  1.0000
  C   C111      1.0  0.50032  0.07718  0.50229  1.0000
  C   C112      1.0  0.00106  0.57840  0.49727  1.0000
  N   N1        1.0  0.62350  0.14006  0.29547  1.0000
  N   N2        1.0  0.37709  0.13977  0.70759  1.0000
  N   N3        1.0  0.12422  0.64020  0.28317  1.0000
  N   N4        1.0  0.87854  0.64114  0.70179  1.0000
  N   N5        1.0  0.37811  0.86433  0.71170  1.0000
  N   N6        1.0  0.62614  0.86597  0.27345  1.0000
  N   N7        1.0  0.87537  0.36576  0.72695  1.0000
  N   N8        1.0  0.12166  0.36200  0.28655  1.0000
  N   N9        1.0  0.62503  0.13051  0.78391  1.0000
  N   N10       1.0  0.37431  0.12870  0.22220  1.0000
  N   N11       1.0  0.12588  0.63126  0.77650  1.0000
  N   N12       1.0  0.87587  0.63090  0.21372  1.0000
  N   N13       1.0  0.37377  0.86800  0.19808  1.0000
  N   N14       1.0  0.62254  0.86107  0.80462  1.0000
  N   N15       1.0  0.87300  0.36779  0.21315  1.0000
  N   N16       1.0  0.12355  0.36427  0.80256  1.0000
  C   C113      1.0  0.58754  0.92637  0.08867  1.0000
  C   C114      1.0  0.55847  0.92146  0.10941  1.0000
  C  Sn1       1.0  0.54998  0.89643  0.20249  1.0000
  C  Sn2       1.0  0.57104  0.87599  0.27606  1.0000
  C   C115      1.0  0.60008  0.88112  0.25469  1.0000
  C   C116      1.0  0.60833  0.90623  0.16125  1.0000
  H   H41       1.0  0.59394  0.94581  0.01646  1.0000
  O  Te1       1.0  0.52084  0.89185  0.22192  1.0000
  O  Te2       1.0  0.56315  0.85080  0.36976  1.0000
  H   H42       1.0  0.63085  0.91004  0.14531  1.0000
  Mg  Mg1       1.0  0.52076  0.85425  0.36068  1.0000
  C   C117      1.0  0.41543  0.92669  0.88749  1.0000
  C   C118      1.0  0.44475  0.92023  0.88483  1.0000
  C  Sn3       1.0  0.45392  0.89329  0.80808  1.0000
  C  Sn4       1.0  0.43333  0.87247  0.73266  1.0000
  C   C119      1.0  0.40405  0.87914  0.73588  1.0000
  C   C120      1.0  0.39510  0.90617  0.81307  1.0000
  H   H43       1.0  0.40851  0.94760  0.94713  1.0000
  O  Te3       1.0  0.48329  0.88719  0.80662  1.0000
  O  Te4       1.0  0.44191  0.84537  0.65504  1.0000
  H   H44       1.0  0.37241  0.91116  0.81501  1.0000
  Mg  Mg2       1.0  0.48436  0.84725  0.68551  1.0000
  C   C121      1.0  0.08529  0.42438  0.10815  1.0000
  C   C122      1.0  0.05593  0.41956  0.11977  1.0000
  C  Sn5       1.0  0.04647  0.39384  0.20351  1.0000
  C  Sn6       1.0  0.06682  0.37261  0.27689  1.0000
  C   C123      1.0  0.09614  0.37765  0.26468  1.0000
  C   C124      1.0  0.10537  0.40346  0.18055  1.0000
  H   H45       1.0  0.09244  0.44435  0.04315  1.0000
  O  Te5       1.0  0.01706  0.38936  0.21389  1.0000
  O  Te6       1.0  0.05795  0.34672  0.36135  1.0000
  H   H46       1.0  0.12810  0.40720  0.17167  1.0000
  Mg  Mg3       1.0  0.01556  0.35063  0.34198  1.0000
  C   C125      1.0  0.91338  0.42784  0.90198  1.0000
  C   C126      1.0  0.94258  0.42135  0.89368  1.0000
  C  Sn7       1.0  0.95129  0.39459  0.81313  1.0000
  C  Sn8       1.0  0.93032  0.37399  0.73959  1.0000
  C   C127      1.0  0.90115  0.38069  0.74846  1.0000
  C   C128      1.0  0.89268  0.40753  0.82943  1.0000
  H   H47       1.0  0.90682  0.44861  0.96454  1.0000
  O  Te7       1.0  0.98055  0.38846  0.80604  1.0000
  O  Te8       1.0  0.93842  0.34708  0.65825  1.0000
  H   H48       1.0  0.87007  0.41255  0.83573  1.0000
  Mg  Mg4       1.0  0.98092  0.34882  0.68147  1.0000
  C   C129      1.0  0.41478  0.07957  0.89926  1.0000
  C   C130      1.0  0.44367  0.08288  0.86848  1.0000
  C  Sn9       1.0  0.45263  0.10833  0.78048  1.0000
  C  Sn10      1.0  0.43223  0.13085  0.72241  1.0000
  C   C131      1.0  0.40337  0.12734  0.75395  1.0000
  C   C132      1.0  0.39464  0.10178  0.84209  1.0000
  H   H49       1.0  0.40802  0.05980  0.96753  1.0000
  O  Te9       1.0  0.48158  0.11128  0.75077  1.0000
  O  Te10      1.0  0.44060  0.15652  0.63420  1.0000
  H   H50       1.0  0.37227  0.09923  0.86599  1.0000
  Mg  Mg5       1.0  0.48249  0.15030  0.62482  1.0000
  C   C133      1.0  0.56220  0.13108  0.28403  1.0000
  C   C134      1.0  0.59138  0.12592  0.26611  1.0000
  C  Sn11      1.0  0.60018  0.10070  0.17248  1.0000
  C  Sn12      1.0  0.57933  0.08032  0.09547  1.0000
  C   C135      1.0  0.55019  0.08570  0.11405  1.0000
  C   C136      1.0  0.54162  0.11100  0.20806  1.0000
  H   H51       1.0  0.55556  0.15066  0.35669  1.0000
  O  Te11      1.0  0.62942  0.09587  0.15589  1.0000
  O  Te12      1.0  0.58753  0.05495  0.00115  1.0000
  H   H52       1.0  0.51902  0.11500  0.22183  1.0000
  Mg  Mg6       1.0  0.62994  0.05809  0.01495  1.0000
  C   C137      1.0  0.93981  0.63147  0.72031  1.0000
  C   C138      1.0  0.91050  0.62647  0.73280  1.0000
  C  Sn13      1.0  0.90127  0.60103  0.81980  1.0000
  C  Sn14      1.0  0.92181  0.58025  0.89560  1.0000
  C   C139      1.0  0.95108  0.58547  0.88249  1.0000
  C   C140      1.0  0.96008  0.61100  0.79510  1.0000
  H   H53       1.0  0.94677  0.65124  0.65278  1.0000
  O  Te13      1.0  0.87191  0.59637  0.83101  1.0000
  O  Te14      1.0  0.91318  0.55464  0.98335  1.0000
  H   H54       1.0  0.98277  0.61488  0.78555  1.0000
  Mg  Mg7       1.0  0.87076  0.55814  0.96389  1.0000
  C   C141      1.0  0.08656  0.57972  0.08981  1.0000
  C   C142      1.0  0.05785  0.58278  0.12600  1.0000
  C  Sn15      1.0  0.04905  0.60802  0.21944  1.0000
  C  Sn16      1.0  0.06942  0.63058  0.27752  1.0000
  C   C143      1.0  0.09809  0.62732  0.24054  1.0000
  C   C144      1.0  0.10666  0.60196  0.14698  1.0000
  H   H55       1.0  0.09319  0.56011  0.01734  1.0000
  O  Te15      1.0  0.02029  0.61071  0.25453  1.0000
  O  Te16      1.0  0.06121  0.65604  0.37111  1.0000
  H   H56       1.0  0.12888  0.59961  0.11888  1.0000
  Mg  Mg8       1.0  0.01955  0.64952  0.38665  1.0000
  C   C145      1.0  0.66193  0.22247  0.61598  1.0000
  C   C146      1.0  0.69081  0.21780  0.58752  1.0000
  C  Sn17      1.0  0.69865  0.19463  0.47672  1.0000
  C  Sn18      1.0  0.67715  0.17583  0.39300  1.0000
  C   C147      1.0  0.64831  0.18070  0.42224  1.0000
  C   C148      1.0  0.64070  0.20394  0.53342  1.0000
  H   H57       1.0  0.65603  0.24046  0.70192  1.0000
  O  Te17      1.0  0.72760  0.19028  0.44977  1.0000
  O  Te18      1.0  0.68439  0.15252  0.28157  1.0000
  H   H58       1.0  0.61834  0.20756  0.55534  1.0000
  Mg  Mg9       1.0  0.72675  0.15553  0.28636  1.0000
  C   C149      1.0  0.33849  0.22189  0.39094  1.0000
  C   C150      1.0  0.30965  0.21744  0.41980  1.0000
  C  Sn19      1.0  0.30190  0.19434  0.52853  1.0000
  C  Sn20      1.0  0.32347  0.17538  0.60973  1.0000
  C   C151      1.0  0.35227  0.18003  0.58012  1.0000
  C   C152      1.0  0.35978  0.20320  0.47103  1.0000
  H   H59       1.0  0.34431  0.23983  0.30661  1.0000
  O  Te19      1.0  0.27299  0.19020  0.55590  1.0000
  O  Te20      1.0  0.31633  0.15213  0.71907  1.0000
  H   H60       1.0  0.38212  0.20666  0.44880  1.0000
  Mg  Mg10      1.0  0.27398  0.15545  0.71584  1.0000
  C   C153      1.0  0.16132  0.72402  0.59758  1.0000
  C   C154      1.0  0.19023  0.72000  0.56789  1.0000
  C  Sn21      1.0  0.19840  0.69686  0.45786  1.0000
  C  Sn22      1.0  0.17720  0.67743  0.37619  1.0000
  C   C155      1.0  0.14833  0.68166  0.40664  1.0000
  C   C156      1.0  0.14039  0.70488  0.51702  1.0000
  H   H61       1.0  0.15517  0.74200  0.68291  1.0000
  O  Te21      1.0  0.22738  0.69315  0.42968  1.0000
  O  Te22      1.0  0.18477  0.65413  0.26557  1.0000
  H   H62       1.0  0.11801  0.70800  0.53989  1.0000
  Mg  Mg11      1.0  0.22703  0.65814  0.26806  1.0000
  C   C157      1.0  0.85415  0.71283  0.40527  1.0000
  C   C158      1.0  0.85579  0.68986  0.52767  1.0000
  C  Sn23      1.0  0.83101  0.68019  0.59983  1.0000
  C  Sn24      1.0  0.80413  0.69380  0.54821  1.0000
  C   C159      1.0  0.80272  0.71675  0.42558  1.0000
  C   C160      1.0  0.82764  0.72626  0.35423  1.0000
  H   H63       1.0  0.87343  0.72018  0.34999  1.0000
  O  Te23      1.0  0.83304  0.65721  0.72200  1.0000
  O  Te24      1.0  0.77903  0.68456  0.61822  1.0000
  H   H64       1.0  0.82636  0.74404  0.25939  1.0000
  Mg  Mg12      1.0  0.79280  0.65242  0.78034  1.0000
  C   C161      1.0  0.33962  0.78171  0.39150  1.0000
  C   C162      1.0  0.31181  0.78277  0.44520  1.0000
  C  Sn25      1.0  0.30395  0.80601  0.55554  1.0000
  C  Sn26      1.0  0.32437  0.82857  0.61293  1.0000
  C   C163      1.0  0.35213  0.82732  0.55838  1.0000
  C   C164      1.0  0.35976  0.80396  0.44799  1.0000
  H   H65       1.0  0.34553  0.76365  0.30602  1.0000
  O  Te25      1.0  0.27608  0.80673  0.60799  1.0000
  O  Te26      1.0  0.31708  0.85206  0.72320  1.0000
  H   H66       1.0  0.38129  0.80315  0.40635  1.0000
  Mg  Mg13      1.0  0.27643  0.84327  0.75894  1.0000
  C   C165      1.0  0.65032  0.78968  0.53348  1.0000
  C   C166      1.0  0.64959  0.81683  0.44055  1.0000
  C  Sn27      1.0  0.67477  0.82854  0.38191  1.0000
  C  Sn28      1.0  0.70116  0.81272  0.41712  1.0000
  C   C167      1.0  0.70167  0.78556  0.51009  1.0000
  C   C168      1.0  0.67634  0.77405  0.56820  1.0000
  H   H67       1.0  0.63073  0.78076  0.57837  1.0000
  O  Te27      1.0  0.67365  0.85571  0.28930  1.0000
  O  Te28      1.0  0.72665  0.82391  0.35998  1.0000
  H   H68       1.0  0.67691  0.75302  0.64006  1.0000
  Mg  Mg14      1.0  0.71413  0.86180  0.23881  1.0000
  C   C169      1.0  0.83891  0.28171  0.41134  1.0000
  C   C170      1.0  0.81101  0.28218  0.46381  1.0000
  C  Sn29      1.0  0.80258  0.30526  0.57348  1.0000
  C  Sn30      1.0  0.82250  0.32826  0.63144  1.0000
  C   C171      1.0  0.85036  0.32760  0.57811  1.0000
  C   C172      1.0  0.85857  0.30440  0.46840  1.0000
  H   H69       1.0  0.84526  0.26377  0.32638  1.0000
  O  Te29      1.0  0.77462  0.30538  0.62470  1.0000
  O  Te30      1.0  0.81465  0.35160  0.74105  1.0000
  H   H70       1.0  0.88017  0.30405  0.42771  1.0000
  Mg  Mg15      1.0  0.77410  0.34194  0.77514  1.0000
  C   C173      1.0  0.14639  0.28823  0.56627  1.0000
  C   C174      1.0  0.14544  0.31521  0.47179  1.0000
  C  Sn31      1.0  0.17010  0.32578  0.40183  1.0000
  C  Sn32      1.0  0.19616  0.30898  0.42710  1.0000
  C   C175      1.0  0.19688  0.28201  0.52172  1.0000
  C   C176      1.0  0.17208  0.27164  0.59120  1.0000
  H   H71       1.0  0.12720  0.28019  0.61996  1.0000
  O  Te31      1.0  0.16877  0.35279  0.30783  1.0000
  O  Te32      1.0  0.22112  0.31903  0.35855  1.0000
  H   H72       1.0  0.17282  0.25074  0.66426  1.0000
  Mg  Mg16      1.0  0.20850  0.35716  0.24002  1.0000
  C   C177      1.0  0.58479  0.91965  0.60890  1.0000
  C   C178      1.0  0.55557  0.91408  0.62115  1.0000
  C  Sn33      1.0  0.54677  0.88894  0.71221  1.0000
  C  Sn34      1.0  0.56766  0.86905  0.79241  1.0000
  C   C179      1.0  0.59684  0.87483  0.77950  1.0000
  C   C180      1.0  0.60541  0.90005  0.68801  1.0000
  H   H73       1.0  0.59143  0.93917  0.53819  1.0000
  O  Te33      1.0  0.51748  0.88371  0.72313  1.0000
  O  Te34      1.0  0.55945  0.84376  0.88428  1.0000
  H   H74       1.0  0.62804  0.90436  0.67864  1.0000
  Mg  Mg17      1.0  0.51697  0.84623  0.86260  1.0000
  C   C181      1.0  0.43514  0.87307  0.19984  1.0000
  C   C182      1.0  0.40684  0.87725  0.24170  1.0000
  C  Sn35      1.0  0.39981  0.90167  0.34665  1.0000
  C  Sn36      1.0  0.42157  0.92226  0.41064  1.0000
  C   C183      1.0  0.44982  0.91790  0.36793  1.0000
  C   C184      1.0  0.45661  0.89338  0.26286  1.0000
  H   H75       1.0  0.44039  0.85411  0.11847  1.0000
  O  Te35      1.0  0.37143  0.90550  0.38726  1.0000
  O  Te36      1.0  0.41514  0.94687  0.51574  1.0000
  H   H76       1.0  0.47852  0.89016  0.23038  1.0000
  Mg  Mg18      1.0  0.37333  0.94249  0.53509  1.0000
  C   C185      1.0  0.04898  0.37980  0.75706  1.0000
  C   C186      1.0  0.04754  0.40753  0.66932  1.0000
  C  Sn37      1.0  0.07242  0.42045  0.61327  1.0000
  C  Sn38      1.0  0.09920  0.40527  0.64580  1.0000
  C   C187      1.0  0.10041  0.37753  0.73358  1.0000
  C   C188      1.0  0.07538  0.36481  0.78915  1.0000
  H   H77       1.0  0.02961  0.36995  0.79998  1.0000
  O  Te37      1.0  0.07060  0.44817  0.52584  1.0000
  O  Te38      1.0  0.12440  0.41766  0.59116  1.0000
  H   H78       1.0  0.07650  0.34333  0.85698  1.0000
  Mg  Mg19      1.0  0.11091  0.45592  0.47707  1.0000
  C   C189      1.0  0.93434  0.37331  0.21440  1.0000
  C   C190      1.0  0.90597  0.37767  0.25453  1.0000
  C  Sn39      1.0  0.89875  0.40265  0.35501  1.0000
  C  Sn40      1.0  0.92038  0.42362  0.41622  1.0000
  C   C191      1.0  0.94870  0.41907  0.37526  1.0000
  C   C192      1.0  0.95569  0.39399  0.27467  1.0000
  H   H79       1.0  0.93975  0.35392  0.13649  1.0000
  O  Te39      1.0  0.87030  0.40665  0.39396  1.0000
  O  Te40      1.0  0.91375  0.44878  0.51684  1.0000
  H   H80       1.0  0.97765  0.39063  0.24352  1.0000
  Mg  Mg20      1.0  0.87192  0.44444  0.53546  1.0000
  C   C193      1.0  0.40144  0.08026  0.38668  1.0000
  C   C194      1.0  0.39954  0.10853  0.30434  1.0000
  C  Sn41      1.0  0.42416  0.12224  0.24970  1.0000
  C  Sn42      1.0  0.45116  0.10731  0.27818  1.0000
  C   C195      1.0  0.45283  0.07903  0.36056  1.0000
  C   C196      1.0  0.42806  0.06552  0.41475  1.0000
  H   H81       1.0  0.38228  0.06980  0.42853  1.0000
  O  Te41      1.0  0.42188  0.15048  0.16769  1.0000
  O  Te42      1.0  0.47610  0.12050  0.22484  1.0000
  H   H82       1.0  0.42953  0.04363  0.47841  1.0000
  Mg  Mg21      1.0  0.46199  0.15925  0.11869  1.0000
  C   C197      1.0  0.59891  0.08154  0.61739  1.0000
  C   C198      1.0  0.60020  0.11004  0.70015  1.0000
  C  Sn43      1.0  0.57531  0.12343  0.75571  1.0000
  C  Sn44      1.0  0.54866  0.10794  0.72775  1.0000
  C   C199      1.0  0.54760  0.07943  0.64494  1.0000
  C   C200      1.0  0.57264  0.06624  0.58982  1.0000
  H   H83       1.0  0.61828  0.07133  0.57481  1.0000
  O  Te43      1.0  0.57697  0.15193  0.83814  1.0000
  O  Te44      1.0  0.52346  0.12080  0.78202  1.0000
  H   H84       1.0  0.57164  0.04417  0.52583  1.0000
  Mg  Mg22      1.0  0.53672  0.16008  0.88843  1.0000
  C   C201      1.0  0.90237  0.58259  0.38167  1.0000
  C   C202      1.0  0.90077  0.61060  0.29669  1.0000
  C  Sn45      1.0  0.92555  0.62382  0.24113  1.0000
  C  Sn46      1.0  0.95239  0.60866  0.27134  1.0000
  C   C203      1.0  0.95376  0.58063  0.35637  1.0000
  C   C204      1.0  0.92883  0.56761  0.41147  1.0000
  H   H85       1.0  0.88308  0.57250  0.42423  1.0000
  O  Te45      1.0  0.92357  0.65182  0.15647  1.0000
  O  Te46      1.0  0.97749  0.62135  0.21712  1.0000
  H   H86       1.0  0.93007  0.54592  0.47716  1.0000
  Mg  Mg23      1.0  0.96379  0.65993  0.10721  1.0000
  C   C205      1.0  0.06451  0.62559  0.76116  1.0000
  C   C206      1.0  0.09352  0.61885  0.74696  1.0000
  C  Sn47      1.0  0.10151  0.59261  0.65891  1.0000
  C  Sn48      1.0  0.07999  0.57280  0.58379  1.0000
  C   C207      1.0  0.05102  0.57976  0.59861  1.0000
  C   C208      1.0  0.04328  0.60607  0.68705  1.0000
  H   H87       1.0  0.05851  0.64596  0.82950  1.0000
  O  Te47      1.0  0.13059  0.58621  0.64598  1.0000
  O  Te48      1.0  0.08737  0.54643  0.49502  1.0000
  H   H88       1.0  0.02081  0.61129  0.69793  1.0000
  Mg  Mg24      1.0  0.12989  0.54753  0.51222  1.0000
  C   C209      1.0  0.69980  0.16598  0.84031  1.0000
  C   C210      1.0  0.70469  0.19592  0.90055  1.0000
  C  Sn49      1.0  0.68442  0.21076  0.99382  1.0000
  C  Sn50      1.0  0.64580  0.19364  0.02724  1.0000
  C   C211      1.0  0.65412  0.16533  0.96653  1.0000
  C   C212      1.0  0.67454  0.15070  0.87328  1.0000
  H   H89       1.0  0.71560  0.15465  0.76824  1.0000
  O  Te49      1.0  0.67664  0.23903  0.05300  1.0000
  O  Te50      1.0  0.62519  0.20793  0.12019  1.0000
  H   H90       1.0  0.67076  0.12751  0.82675  1.0000
  Mg  Mg25      1.0  0.64209  0.24883  0.17380  1.0000
  C   C213      1.0  0.32560  0.21101  0.98057  1.0000
  C   C214      1.0  0.28665  0.20312  0.05004  1.0000
  C  Sn51      1.0  0.28306  0.17561  0.13516  1.0000
  C  Sn52      1.0  0.30592  0.15400  0.15086  1.0000
  C   C215      1.0  0.33181  0.16047  0.08102  1.0000
  C   C216      1.0  0.34817  0.18971  0.99605  1.0000
  H   H91       1.0  0.32821  0.23237  0.91491  1.0000
  O  Te51      1.0  0.25699  0.16973  0.20376  1.0000
  O  Te52      1.0  0.30292  0.12633  0.23534  1.0000
  H   H92       1.0  0.36827  0.19455  0.94238  1.0000
  Mg  Mg26      1.0  0.26328  0.12878  0.30729  1.0000
  C   C217      1.0  0.16104  0.71312  0.01039  1.0000
  C   C218      1.0  0.19982  0.70811  0.93880  1.0000
  C  Sn53      1.0  0.20333  0.68021  0.85413  1.0000
  C  Sn54      1.0  0.18056  0.65863  0.84106  1.0000
  C   C219      1.0  0.15485  0.66551  0.91301  1.0000
  C   C220      1.0  0.15157  0.69349  0.99750  1.0000
  H   H93       1.0  0.15849  0.73478  0.07569  1.0000
  O  Te53      1.0  0.22923  0.67392  0.78338  1.0000
  O  Te54      1.0  0.18349  0.63058  0.75708  1.0000
  H   H94       1.0  0.11860  0.69701  0.05283  1.0000
  Mg  Mg27      1.0  0.22289  0.63255  0.68155  1.0000
  C   C221      1.0  0.83991  0.70199  0.95944  1.0000
  C   C222      1.0  0.83314  0.67234  0.03892  1.0000
  C  Sn55      1.0  0.81285  0.65835  0.13351  1.0000
  C  Sn56      1.0  0.78583  0.67274  0.14854  1.0000
  C   C223      1.0  0.77978  0.70076  0.06844  1.0000
  C   C224      1.0  0.81325  0.71620  0.97414  1.0000
  H   H95       1.0  0.85573  0.71266  0.88640  1.0000
  O  Te55      1.0  0.81944  0.63037  0.21216  1.0000
  O  Te56      1.0  0.76515  0.65927  0.24226  1.0000
  H   H96       1.0  0.80841  0.73788  0.91252  1.0000
  Mg  Mg28      1.0  0.78422  0.62104  0.32608  1.0000
  C   C225      1.0  0.32289  0.78583  0.97292  1.0000
  C   C226      1.0  0.28664  0.78996  0.06988  1.0000
  C  Sn57      1.0  0.28414  0.81822  0.15258  1.0000
  C  Sn58      1.0  0.30534  0.84108  0.13766  1.0000
  C   C227      1.0  0.32850  0.83510  0.04025  1.0000
  C   C228      1.0  0.34380  0.80838  0.95808  1.0000
  H   H97       1.0  0.32466  0.76390  0.90925  1.0000
  O  Te57      1.0  0.26079  0.82359  0.24900  1.0000
  O  Te58      1.0  0.30337  0.86953  0.21893  1.0000
  H   H98       1.0  0.36179  0.80393  0.88292  1.0000
  Mg  Mg29      1.0  0.26756  0.86595  0.33589  1.0000
  C   C229      1.0  0.69740  0.82949  0.83652  1.0000
  C   C230      1.0  0.70546  0.80024  0.89431  1.0000
  C  Sn59      1.0  0.68628  0.78238  0.97796  1.0000
  C  Sn60      1.0  0.64553  0.79243  0.00400  1.0000
  C   C231      1.0  0.65067  0.82335  0.94560  1.0000
  C   C232      1.0  0.67003  0.84103  0.86210  1.0000
  H   H99       1.0  0.71237  0.84316  0.77183  1.0000
  O  Te59      1.0  0.68168  0.75157  0.03493  1.0000
  O  Te60      1.0  0.62594  0.77507  0.08716  1.0000
  H   H100      1.0  0.66378  0.86367  0.81727  1.0000
  Mg  Mg30      1.0  0.64740  0.73664  0.14144  1.0000
  C   C233      1.0  0.83591  0.29468  0.98653  1.0000
  C   C234      1.0  0.82760  0.32363  0.03555  1.0000
  C  Sn61      1.0  0.80791  0.33907  0.13039  1.0000
  C  Sn62      1.0  0.78310  0.32352  0.17687  1.0000
  C   C235      1.0  0.77861  0.29291  0.12731  1.0000
  C   C236      1.0  0.79844  0.27769  0.03238  1.0000
  H   H101      1.0  0.85126  0.28289  0.91316  1.0000
  O  Te61      1.0  0.81293  0.36964  0.17825  1.0000
  O  Te62      1.0  0.76308  0.33840  0.27167  1.0000
  H   H102      1.0  0.80781  0.25563  0.99454  1.0000
  Mg  Mg31      1.0  0.77940  0.38008  0.30673  1.0000
  C   C237      1.0  0.16233  0.28047  0.02023  1.0000
  C   C238      1.0  0.19861  0.28834  0.92522  1.0000
  C  Sn63      1.0  0.20078  0.31680  0.84731  1.0000
  C  Sn64      1.0  0.17921  0.33941  0.86510  1.0000
  C   C239      1.0  0.15602  0.33296  0.96052  1.0000
  C   C240      1.0  0.14106  0.30276  0.03791  1.0000
  H   H103      1.0  0.16082  0.25838  0.08019  1.0000
  O  Te63      1.0  0.22417  0.32263  0.75278  1.0000
  O  Te64      1.0  0.18085  0.36805  0.78863  1.0000
  H   H104      1.0  0.12304  0.29796  0.11155  1.0000
  Mg  Mg32      1.0  0.21686  0.36511  0.67262  1.0000
