data_image0
_chemical_formula_structural       H60C112N16C2Sn2C2HTe2HMgC2Sn2C2HTe2HMgC2Sn2C2HTe2HMgC2Sn2C2HTe2HMgC2Sn2C2HTe2HMgC2Sn2C2HTe2HMgC2Sn2C2HTe2HMgC2Sn2C2HTe2HMg
_chemical_formula_sum              "H76 C144 N16 Sn16 Te16 Mg8"
_cell_length_a       35.0931
_cell_length_b       35.1016
_cell_length_c       8.15403
_cell_angle_alpha    88.7904
_cell_angle_beta     91.1915
_cell_angle_gamma    91.1052

_symmetry_space_group_name_H-M    'P1'
_space_group_IT_number       1

loop_
  _space_group_symop_operation_xyz
  'x, y, z'

loop_
  _atom_site_type_symbol
  _atom_site_label
  _atom_site_symmetry_multiplicity
  _atom_site_fract_x
  _atom_site_fract_y
  _atom_site_fract_z
  _atom_site_occupancy
  H   H1        1.0  0.44494  0.90645  0.36471  1.0000
  H   H2        1.0  0.43897  0.83597  0.38349  1.0000
  H   H3        1.0  0.54879  0.82574  0.16492  1.0000
  H   H4        1.0  0.55503  0.89665  0.14474  1.0000
  H   H5        1.0  0.46158  0.77429  0.33436  1.0000
  H   H6        1.0  0.53028  0.22630  0.40554  1.0000
  H   H7        1.0  0.56644  0.37348  0.11641  1.0000
  H   H8        1.0  0.43258  0.63009  0.12797  1.0000
  H   H9        1.0  0.62330  0.42531  0.13978  1.0000
  H   H10       1.0  0.37589  0.57751  0.12997  1.0000
  H   H11       1.0  0.37050  0.43087  0.37012  1.0000
  H   H12       1.0  0.63033  0.56947  0.37239  1.0000
  H   H13       1.0  0.42101  0.37479  0.35478  1.0000
  H   H14       1.0  0.57905  0.62546  0.36240  1.0000
  H   H15       1.0  0.47624  0.47891  0.22126  1.0000
  H   H16       1.0  0.52242  0.52204  0.23747  1.0000
  H   H17       1.0  0.44133  0.35528  0.09900  1.0000
  H   H18       1.0  0.43945  0.28441  0.10022  1.0000
  H   H19       1.0  0.54552  0.28316  0.37446  1.0000
  H   H20       1.0  0.54608  0.35304  0.37912  1.0000
  H   H21       1.0  0.64238  0.44578  0.42874  1.0000
  H   H22       1.0  0.35747  0.55648  0.39584  1.0000
  H   H23       1.0  0.71322  0.44326  0.43827  1.0000
  H   H24       1.0  0.28669  0.55786  0.40665  1.0000
  H   H25       1.0  0.71851  0.54112  0.11123  1.0000
  H   H26       1.0  0.27962  0.45577  0.12433  1.0000
  H   H27       1.0  0.64890  0.54387  0.10725  1.0000
  H   H28       1.0  0.34938  0.45515  0.11133  1.0000
  H   H29       1.0  0.22515  0.47648  0.07669  1.0000
  H   H30       1.0  0.77549  0.53837  0.16731  1.0000
  H   H31       1.0  0.55972  0.09560  0.88442  1.0000
  H   H32       1.0  0.56206  0.16618  0.90563  1.0000
  H   H33       1.0  0.45305  0.17351  0.65793  1.0000
  H   H34       1.0  0.44996  0.10262  0.63873  1.0000
  H   H35       1.0  0.46319  0.77420  0.81726  1.0000
  H   H36       1.0  0.53706  0.22655  0.85260  1.0000
  H   H37       1.0  0.56602  0.37153  0.62849  1.0000
  H   H38       1.0  0.43098  0.62960  0.62780  1.0000
  H   H39       1.0  0.62267  0.42389  0.64313  1.0000
  H   H40       1.0  0.37396  0.57785  0.63636  1.0000
  H   H41       1.0  0.36952  0.42960  0.86612  1.0000
  H   H42       1.0  0.62869  0.56818  0.87671  1.0000
  H   H43       1.0  0.42086  0.37392  0.85117  1.0000
  H   H44       1.0  0.57751  0.62424  0.86582  1.0000
  H   H45       1.0  0.47448  0.47833  0.71178  1.0000
  H   H46       1.0  0.52144  0.52098  0.73264  1.0000
  H   H47       1.0  0.44358  0.35529  0.57479  1.0000
  H   H48       1.0  0.44109  0.28434  0.57471  1.0000
  H   H49       1.0  0.53791  0.28214  0.90712  1.0000
  H   H50       1.0  0.54070  0.35199  0.90207  1.0000
  H   H51       1.0  0.35574  0.55250  0.91411  1.0000
  H   H52       1.0  0.28474  0.55417  0.91754  1.0000
  H   H53       1.0  0.27890  0.45728  0.60289  1.0000
  H   H54       1.0  0.34869  0.45614  0.59889  1.0000
  H   H55       1.0  0.90626  0.55711  0.61692  1.0000
  H   H56       1.0  0.83575  0.56308  0.60009  1.0000
  H   H57       1.0  0.82220  0.45809  0.87584  1.0000
  H   H58       1.0  0.89304  0.45192  0.89446  1.0000
  H   H59       1.0  0.22239  0.46819  0.59759  1.0000
  H   H60       1.0  0.77370  0.53840  0.64086  1.0000
  C   C1        1.0  0.50361  0.98165  0.23797  1.0000
  C   C2        1.0  0.50441  0.01998  0.24128  1.0000
  C   C3        1.0  0.50284  0.94658  0.24051  1.0000
  C   C4        1.0  0.50481  0.05493  0.25063  1.0000
  C   C5        1.0  0.50011  0.90650  0.25091  1.0000
  C   C6        1.0  0.46736  0.88877  0.31918  1.0000
  C   C7        1.0  0.46421  0.84930  0.32967  1.0000
  C   C8        1.0  0.49330  0.82610  0.27287  1.0000
  C   C9        1.0  0.52625  0.84379  0.20718  1.0000
  C   C10       1.0  0.52964  0.88316  0.19593  1.0000
  C   C11       1.0  0.48856  0.78482  0.28180  1.0000
  C   C12       1.0  0.50992  0.21609  0.31114  1.0000
  C   C13       1.0  0.56490  0.40227  0.16016  1.0000
  C   C14       1.0  0.43423  0.60033  0.16369  1.0000
  C   C15       1.0  0.59375  0.42865  0.17087  1.0000
  C   C16       1.0  0.40551  0.57371  0.16456  1.0000
  C   C17       1.0  0.57696  0.46321  0.23051  1.0000
  C   C18       1.0  0.42238  0.53810  0.22132  1.0000
  C   C19       1.0  0.53081  0.42069  0.21635  1.0000
  C   C20       1.0  0.46845  0.58082  0.22008  1.0000
  C   C21       1.0  0.39973  0.43335  0.33153  1.0000
  C   C22       1.0  0.60048  0.56716  0.33814  1.0000
  C   C23       1.0  0.42575  0.40462  0.32494  1.0000
  C   C24       1.0  0.57424  0.59584  0.33293  1.0000
  C   C25       1.0  0.46113  0.42082  0.27069  1.0000
  C   C26       1.0  0.53830  0.57988  0.28062  1.0000
  C   C27       1.0  0.41794  0.46814  0.27861  1.0000
  C   C28       1.0  0.58157  0.53264  0.28892  1.0000
  C   C29       1.0  0.49531  0.40167  0.24096  1.0000
  C   C30       1.0  0.50405  0.59937  0.24871  1.0000
  C   C31       1.0  0.40108  0.50404  0.25133  1.0000
  C   C32       1.0  0.59814  0.49701  0.26359  1.0000
  C   C33       1.0  0.49371  0.35962  0.24036  1.0000
  C   C34       1.0  0.64025  0.49534  0.26932  1.0000
  C   C35       1.0  0.35901  0.50555  0.25394  1.0000
  C   C36       1.0  0.46346  0.33936  0.16364  1.0000
  C   C37       1.0  0.46242  0.29979  0.16307  1.0000
  C   C38       1.0  0.49176  0.27836  0.23808  1.0000
  C   C39       1.0  0.52219  0.29843  0.31495  1.0000
  C   C40       1.0  0.52282  0.33797  0.31692  1.0000
  C   C41       1.0  0.65921  0.46649  0.35925  1.0000
  C   C42       1.0  0.34030  0.53491  0.33360  1.0000
  C   C43       1.0  0.69876  0.46497  0.36464  1.0000
  C   C44       1.0  0.30076  0.53577  0.34001  1.0000
  C   C45       1.0  0.72138  0.49209  0.27959  1.0000
  C   C46       1.0  0.27784  0.50744  0.26505  1.0000
  C   C47       1.0  0.70252  0.52069  0.18635  1.0000
  C   C48       1.0  0.29632  0.47805  0.18440  1.0000
  C   C49       1.0  0.66298  0.52223  0.18277  1.0000
  C   C50       1.0  0.33582  0.47737  0.17863  1.0000
  C   C51       1.0  0.01902  0.49387  0.25800  1.0000
  C   C52       1.0  0.98074  0.49482  0.26529  1.0000
  C   C53       1.0  0.05392  0.49369  0.24591  1.0000
  C   C54       1.0  0.94573  0.49607  0.26681  1.0000
  C   C55       1.0  0.21510  0.49256  0.18129  1.0000
  C   C56       1.0  0.78464  0.51207  0.23110  1.0000
  C   C57       1.0  0.50547  0.98099  0.73505  1.0000
  C   C58       1.0  0.50522  0.01932  0.73856  1.0000
  C   C59       1.0  0.50545  0.94591  0.73590  1.0000
  C   C60       1.0  0.50433  0.05430  0.74556  1.0000
  C   C61       1.0  0.50491  0.09429  0.75873  1.0000
  C   C62       1.0  0.53664  0.11282  0.83421  1.0000
  C   C63       1.0  0.53777  0.15222  0.84545  1.0000
  C   C64       1.0  0.50784  0.17458  0.78121  1.0000
  C   C65       1.0  0.47600  0.15609  0.70777  1.0000
  C   C66       1.0  0.47439  0.11676  0.69698  1.0000
  C   C67       1.0  0.49084  0.78428  0.76969  1.0000
  C   C68       1.0  0.51107  0.21579  0.79037  1.0000
  C   C69       1.0  0.56427  0.40093  0.66425  1.0000
  C   C70       1.0  0.43251  0.60002  0.66704  1.0000
  C   C71       1.0  0.59299  0.42751  0.67122  1.0000
  C   C72       1.0  0.40355  0.57363  0.67067  1.0000
  C   C73       1.0  0.57601  0.46258  0.72449  1.0000
  C   C74       1.0  0.42042  0.53788  0.72649  1.0000
  C   C75       1.0  0.52990  0.41998  0.71315  1.0000
  C   C76       1.0  0.46679  0.58040  0.72248  1.0000
  C   C77       1.0  0.39862  0.43222  0.82579  1.0000
  C   C78       1.0  0.59893  0.56606  0.84055  1.0000
  C   C79       1.0  0.42490  0.40370  0.81854  1.0000
  C   C80       1.0  0.57267  0.59469  0.83556  1.0000
  C   C81       1.0  0.45993  0.42018  0.76221  1.0000
  C   C82       1.0  0.53684  0.57888  0.78108  1.0000
  C   C83       1.0  0.41651  0.46723  0.77271  1.0000
  C   C84       1.0  0.58024  0.53175  0.78758  1.0000
  C   C85       1.0  0.49430  0.40117  0.73554  1.0000
  C   C86       1.0  0.50273  0.59862  0.74833  1.0000
  C   C87       1.0  0.39957  0.50331  0.75205  1.0000
  C   C88       1.0  0.59712  0.49639  0.75854  1.0000
  C   C89       1.0  0.49265  0.35903  0.73614  1.0000
  C   C90       1.0  0.35756  0.50435  0.75603  1.0000
  C   C91       1.0  0.46409  0.33908  0.64758  1.0000
  C   C92       1.0  0.46264  0.29948  0.64720  1.0000
  C   C93       1.0  0.48955  0.27779  0.73700  1.0000
  C   C94       1.0  0.51775  0.29764  0.82916  1.0000
  C   C95       1.0  0.51932  0.33720  0.82752  1.0000
  C   C96       1.0  0.33868  0.53224  0.84372  1.0000
  C   C97       1.0  0.29911  0.53319  0.84599  1.0000
  C   C98       1.0  0.27646  0.50637  0.76016  1.0000
  C   C99       1.0  0.29524  0.47817  0.67304  1.0000
  C   C100      1.0  0.33475  0.47733  0.67106  1.0000
  C   C101      1.0  0.01768  0.49889  0.75946  1.0000
  C   C102      1.0  0.97940  0.49998  0.76359  1.0000
  C   C103      1.0  0.05260  0.49827  0.74997  1.0000
  C   C104      1.0  0.94438  0.50107  0.76285  1.0000
  C   C105      1.0  0.90442  0.50405  0.75593  1.0000
  C   C106      1.0  0.88774  0.53564  0.67352  1.0000
  C   C107      1.0  0.84839  0.53872  0.66408  1.0000
  C   C108      1.0  0.82436  0.51071  0.73604  1.0000
  C   C109      1.0  0.84101  0.47937  0.81946  1.0000
  C   C110      1.0  0.88026  0.47600  0.82944  1.0000
  C   C111      1.0  0.21328  0.48939  0.68550  1.0000
  C   C112      1.0  0.78327  0.51454  0.72008  1.0000
  N   N1        1.0  0.53848  0.45818  0.25150  1.0000
  N   N2        1.0  0.46094  0.54272  0.24806  1.0000
  N   N3        1.0  0.45528  0.45935  0.24818  1.0000
  N   N4        1.0  0.54383  0.54149  0.26024  1.0000
  N   N5        1.0  0.51427  0.76236  0.22907  1.0000
  N   N6        1.0  0.48879  0.23874  0.22284  1.0000
  N   N7        1.0  0.23824  0.51000  0.28171  1.0000
  N   N8        1.0  0.76090  0.48739  0.29370  1.0000
  N   N9        1.0  0.53742  0.45776  0.74306  1.0000
  N   N10       1.0  0.45898  0.54242  0.75221  1.0000
  N   N11       1.0  0.45370  0.45862  0.73882  1.0000
  N   N12       1.0  0.54250  0.54056  0.75885  1.0000
  N   N13       1.0  0.51680  0.76133  0.72335  1.0000
  N   N14       1.0  0.48552  0.23807  0.72659  1.0000
  N   N15       1.0  0.23687  0.51001  0.77199  1.0000
  N   N16       1.0  0.75998  0.49095  0.79258  1.0000
  C   C113      1.0  0.53904  0.67070  0.14259  1.0000
  C   C114      1.0  0.51512  0.64585  0.23075  1.0000
  C  Sn1       1.0  0.48617  0.66016  0.32566  1.0000
  C  Sn2       1.0  0.48114  0.70010  0.33214  1.0000
  C   C115      1.0  0.50520  0.72473  0.24340  1.0000
  C   C116      1.0  0.53409  0.71010  0.14886  1.0000
  H   H61       1.0  0.56138  0.65939  0.06936  1.0000
  O  Te1       1.0  0.46254  0.63493  0.41304  1.0000
  O  Te2       1.0  0.45243  0.71517  0.42598  1.0000
  H   H62       1.0  0.55259  0.72935  0.08053  1.0000
  Mg  Mg1       1.0  0.42747  0.66922  0.52345  1.0000
  C   C117      1.0  0.68918  0.46159  0.86890  1.0000
  C   C118      1.0  0.71526  0.48542  0.78721  1.0000
  C  Sn3       1.0  0.70252  0.51653  0.69295  1.0000
  C  Sn4       1.0  0.66294  0.52385  0.68050  1.0000
  C   C119      1.0  0.63708  0.49985  0.76279  1.0000
  C   C120      1.0  0.65013  0.46880  0.85674  1.0000
  H   H63       1.0  0.69928  0.43757  0.94167  1.0000
  O  Te3       1.0  0.72896  0.54004  0.61209  1.0000
  O  Te4       1.0  0.64943  0.55475  0.58717  1.0000
  H   H64       1.0  0.62994  0.45037  0.92006  1.0000
  Mg  Mg2       1.0  0.69661  0.57859  0.49970  1.0000
  C   C121      1.0  0.12681  0.52460  0.32565  1.0000
  C   C122      1.0  0.09894  0.50285  0.24357  1.0000
  C  Sn5       1.0  0.10947  0.47392  0.13949  1.0000
  C  Sn6       1.0  0.14866  0.46669  0.11745  1.0000
  C   C123      1.0  0.17632  0.48859  0.20020  1.0000
  C   C124      1.0  0.16546  0.51748  0.30402  1.0000
  H   H65       1.0  0.11841  0.54694  0.40605  1.0000
  O  Te5       1.0  0.08126  0.45246  0.05839  1.0000
  O  Te6       1.0  0.15998  0.43794  0.01419  1.0000
  H   H66       1.0  0.18705  0.53430  0.36763  1.0000
  Mg  Mg3       1.0  0.11567  0.41161  0.93055  1.0000
  C   C125      1.0  0.47570  0.14853  0.17268  1.0000
  C   C126      1.0  0.49939  0.17110  0.27233  1.0000
  C  Sn7       1.0  0.52842  0.15451  0.36771  1.0000
  C  Sn8       1.0  0.53375  0.11459  0.36296  1.0000
  C   C127      1.0  0.50991  0.09226  0.26279  1.0000
  C   C128      1.0  0.48095  0.10915  0.16788  1.0000
  H   H67       1.0  0.45330  0.16159  0.09918  1.0000
  O  Te7       1.0  0.55183  0.17748  0.46663  1.0000
  O  Te8       1.0  0.56255  0.09728  0.45700  1.0000
  H   H68       1.0  0.46262  0.09167  0.09066  1.0000
  Mg  Mg4       1.0  0.58712  0.14061  0.57250  1.0000
  C   C129      1.0  0.53681  0.87319  0.68097  1.0000
  C   C130      1.0  0.51031  0.90062  0.72004  1.0000
  C  Sn9       1.0  0.47555  0.88961  0.78868  1.0000
  C  Sn10      1.0  0.46724  0.85039  0.81865  1.0000
  C   C131      1.0  0.49395  0.82317  0.77924  1.0000
  C   C132      1.0  0.52864  0.83451  0.71055  1.0000
  H   H69       1.0  0.56366  0.88196  0.62791  1.0000
  O  Te9       1.0  0.44939  0.91739  0.82692  1.0000
  O  Te10      1.0  0.43272  0.83860  0.88720  1.0000
  H   H70       1.0  0.54916  0.81327  0.68042  1.0000
  Mg  Mg5       1.0  0.40626  0.88715  0.91826  1.0000
  C   C133      1.0  0.85042  0.46917  0.33467  1.0000
  C   C134      1.0  0.82919  0.49945  0.27011  1.0000
  C  Sn11      1.0  0.84741  0.53022  0.19106  1.0000
  C  Sn12      1.0  0.88763  0.53059  0.17654  1.0000
  C   C135      1.0  0.90862  0.50015  0.24145  1.0000
  C   C136      1.0  0.89009  0.46951  0.32035  1.0000
  H   H71       1.0  0.83609  0.44545  0.39565  1.0000
  O  Te11      1.0  0.82576  0.56025  0.12730  1.0000
  O  Te12      1.0  0.90657  0.56098  0.09809  1.0000
  H   H72       1.0  0.90654  0.44605  0.37024  1.0000
  Mg  Mg6       1.0  0.86462  0.59527  0.03118  1.0000
  C   C137      1.0  0.47636  0.69370  0.83323  1.0000
  C   C138      1.0  0.50458  0.71758  0.76620  1.0000
  C  Sn13      1.0  0.53358  0.70238  0.67424  1.0000
  C  Sn14      1.0  0.53426  0.66252  0.64910  1.0000
  C   C139      1.0  0.50588  0.63888  0.71658  1.0000
  C   C140      1.0  0.47700  0.65439  0.80844  1.0000
  H   H73       1.0  0.45401  0.70570  0.90423  1.0000
  O  Te13      1.0  0.56155  0.72664  0.60820  1.0000
  O  Te14      1.0  0.56290  0.64658  0.55765  1.0000
  H   H74       1.0  0.45515  0.63590  0.86023  1.0000
  Mg  Mg7       1.0  0.59470  0.69138  0.49265  1.0000
  C   C141      1.0  0.14772  0.52918  0.79413  1.0000
  C   C142      1.0  0.16906  0.50002  0.72971  1.0000
  C  Sn15      1.0  0.15076  0.46880  0.65666  1.0000
  C  Sn16      1.0  0.11034  0.46683  0.64810  1.0000
  C   C143      1.0  0.08926  0.49617  0.71281  1.0000
  C   C144      1.0  0.10786  0.52726  0.78568  1.0000
  H   H75       1.0  0.16211  0.55325  0.85043  1.0000
  O  Te15      1.0  0.17251  0.43991  0.59297  1.0000
  O  Te16      1.0  0.09133  0.43597  0.57571  1.0000
  H   H76       1.0  0.09133  0.54985  0.83545  1.0000
  Mg  Mg8       1.0  0.13348  0.40367  0.50634  1.0000
