data_image0
_chemical_formula_structural       H28C64N16C2Sn2C2HTe2HMgC2Sn2C2HTe2HMgC2Sn2C2HTe2HMgC2Sn2C2HTe2HMgC2Sn2C2HTe2HMgC2Sn2C2HTe2HMgC2Sn2C2HTe2HMgC2Sn2C2HTe2HMgC2Sn2C2HTe2HMgC2Sn2C2HTe2HMgC2Sn2C2HTe2HMgC2Sn2C2HTe2HMgC2Sn2C2HTe2HMgC2Sn2C2HTe2HMgC2Sn2C2HTe2HMgC2Sn2C2HTe2HMg
_chemical_formula_sum              "H60 C128 N16 Sn32 Te32 Mg16"
_cell_length_a       33.9828
_cell_length_b       33.9514
_cell_length_c       8.08138
_cell_angle_alpha    90.3349
_cell_angle_beta     90.3908
_cell_angle_gamma    90.7266

_symmetry_space_group_name_H-M    'P1'
_space_group_IT_number       1

loop_
  _space_group_symop_operation_xyz
  'x, y, z'

loop_
  _atom_site_type_symbol
  _atom_site_label
  _atom_site_symmetry_multiplicity
  _atom_site_fract_x
  _atom_site_fract_y
  _atom_site_fract_z
  _atom_site_occupancy
  H   H1        1.0  0.47451  0.78781  0.41167  1.0000
  H   H2        1.0  0.51502  0.21425  0.91848  1.0000
  H   H3        1.0  0.56640  0.36588  0.11957  1.0000
  H   H4        1.0  0.43115  0.63544  0.63912  1.0000
  H   H5        1.0  0.62517  0.41935  0.12862  1.0000
  H   H6        1.0  0.37283  0.58153  0.64730  1.0000
  H   H7        1.0  0.36224  0.42701  0.35461  1.0000
  H   H8        1.0  0.63676  0.57237  0.85471  1.0000
  H   H9        1.0  0.41552  0.36918  0.34189  1.0000
  H   H10       1.0  0.58330  0.62987  0.85882  1.0000
  H   H11       1.0  0.47245  0.47740  0.22684  1.0000
  H   H12       1.0  0.52569  0.52324  0.72054  1.0000
  H   H13       1.0  0.21004  0.49083  0.08589  1.0000
  H   H14       1.0  0.78884  0.51148  0.57631  1.0000
  H   H15       1.0  0.54815  0.22186  0.36897  1.0000
  H   H16       1.0  0.45463  0.77936  0.77815  1.0000
  H   H17       1.0  0.42889  0.63196  0.12225  1.0000
  H   H18       1.0  0.57036  0.36687  0.62186  1.0000
  H   H19       1.0  0.37013  0.57896  0.12951  1.0000
  H   H20       1.0  0.62840  0.42039  0.62068  1.0000
  H   H21       1.0  0.63256  0.56983  0.36820  1.0000
  H   H22       1.0  0.36868  0.43175  0.88645  1.0000
  H   H23       1.0  0.57940  0.62766  0.36978  1.0000
  H   H24       1.0  0.42105  0.37323  0.87868  1.0000
  H   H25       1.0  0.52160  0.52084  0.23212  1.0000
  H   H26       1.0  0.47831  0.47856  0.72952  1.0000
  H   H27       1.0  0.77748  0.54868  0.13490  1.0000
  H   H28       1.0  0.22182  0.45643  0.60829  1.0000
  C   C1        1.0  0.50648  0.98833  0.19483  1.0000
  C   C2        1.0  0.49908  0.01150  0.69573  1.0000
  C   C3        1.0  0.50382  0.95482  0.08744  1.0000
  C   C4        1.0  0.50087  0.04476  0.58859  1.0000
  C   C5        1.0  0.49398  0.79504  0.30766  1.0000
  C   C6        1.0  0.49882  0.20559  0.80530  1.0000
  C   C7        1.0  0.56490  0.39642  0.15736  1.0000
  C   C8        1.0  0.43317  0.60478  0.67323  1.0000
  C   C9        1.0  0.59473  0.42354  0.16191  1.0000
  C   C10       1.0  0.40359  0.57736  0.67688  1.0000
  C   C11       1.0  0.57761  0.46017  0.21949  1.0000
  C   C12       1.0  0.42147  0.54066  0.72925  1.0000
  C   C13       1.0  0.52970  0.41666  0.21319  1.0000
  C   C14       1.0  0.46896  0.58465  0.72343  1.0000
  C   C15       1.0  0.39287  0.42962  0.32062  1.0000
  C   C16       1.0  0.60591  0.56975  0.82290  1.0000
  C   C17       1.0  0.42023  0.40004  0.31475  1.0000
  C   C18       1.0  0.57862  0.59937  0.82411  1.0000
  C   C19       1.0  0.45716  0.41700  0.26620  1.0000
  C   C20       1.0  0.54156  0.58306  0.77186  1.0000
  C   C21       1.0  0.41191  0.46576  0.27454  1.0000
  C   C22       1.0  0.58659  0.53407  0.77048  1.0000
  C   C23       1.0  0.49297  0.39740  0.23928  1.0000
  C   C24       1.0  0.50609  0.60350  0.74621  1.0000
  C   C25       1.0  0.39504  0.50319  0.25244  1.0000
  C   C26       1.0  0.60356  0.49678  0.74396  1.0000
  C   C27       1.0  0.00913  0.50457  0.32585  1.0000
  C   C28       1.0  0.98960  0.49339  0.82462  1.0000
  C   C29       1.0  0.04317  0.50273  0.42986  1.0000
  C   C30       1.0  0.95559  0.49565  0.92667  1.0000
  C   C31       1.0  0.20214  0.50539  0.20304  1.0000
  C   C32       1.0  0.79664  0.49567  0.69029  1.0000
  C   C33       1.0  0.50768  0.01198  0.30996  1.0000
  C   C34       1.0  0.49814  0.98804  0.81049  1.0000
  C   C35       1.0  0.50850  0.04483  0.42049  1.0000
  C   C36       1.0  0.49679  0.95503  0.91872  1.0000
  C   C37       1.0  0.52392  0.20842  0.29646  1.0000
  C   C38       1.0  0.48323  0.79295  0.74782  1.0000
  C   C39       1.0  0.43036  0.60170  0.16238  1.0000
  C   C40       1.0  0.56855  0.39753  0.65767  1.0000
  C   C41       1.0  0.40051  0.57461  0.16460  1.0000
  C   C42       1.0  0.59820  0.42485  0.65718  1.0000
  C   C43       1.0  0.41746  0.53804  0.22360  1.0000
  C   C44       1.0  0.58129  0.46168  0.71489  1.0000
  C   C45       1.0  0.46528  0.58174  0.22211  1.0000
  C   C46       1.0  0.53370  0.41764  0.71620  1.0000
  C   C47       1.0  0.60170  0.56752  0.33549  1.0000
  C   C48       1.0  0.39895  0.43346  0.84658  1.0000
  C   C49       1.0  0.57439  0.59712  0.33663  1.0000
  C   C50       1.0  0.42586  0.40352  0.84288  1.0000
  C   C51       1.0  0.53727  0.58077  0.28442  1.0000
  C   C52       1.0  0.46232  0.41925  0.78350  1.0000
  C   C53       1.0  0.58228  0.53196  0.28251  1.0000
  C   C54       1.0  0.41792  0.46860  0.78898  1.0000
  C   C55       1.0  0.50186  0.60093  0.25353  1.0000
  C   C56       1.0  0.49721  0.39866  0.74834  1.0000
  C   C57       1.0  0.59954  0.49509  0.25069  1.0000
  C   C58       1.0  0.40021  0.50534  0.75866  1.0000
  C   C59       1.0  0.98568  0.50500  0.20969  1.0000
  C   C60       1.0  0.01321  0.49291  0.71055  1.0000
  C   C61       1.0  0.95398  0.50499  0.09356  1.0000
  C   C62       1.0  0.04498  0.49336  0.59652  1.0000
  C   C63       1.0  0.78978  0.52331  0.20077  1.0000
  C   C64       1.0  0.20974  0.47771  0.69677  1.0000
  N   N1        1.0  0.53780  0.45569  0.24379  1.0000
  N   N2        1.0  0.46135  0.54547  0.75115  1.0000
  N   N3        1.0  0.45084  0.45679  0.24659  1.0000
  N   N4        1.0  0.54758  0.54340  0.74450  1.0000
  N   N5        1.0  0.51154  0.76894  0.21850  1.0000
  N   N6        1.0  0.48326  0.23069  0.70513  1.0000
  N   N7        1.0  0.22808  0.51899  0.30733  1.0000
  N   N8        1.0  0.77073  0.48114  0.79025  1.0000
  N   N9        1.0  0.45717  0.54261  0.25114  1.0000
  N   N10       1.0  0.54175  0.45699  0.74331  1.0000
  N   N11       1.0  0.54325  0.54111  0.25843  1.0000
  N   N12       1.0  0.45648  0.45892  0.75844  1.0000
  N   N13       1.0  0.49697  0.22889  0.22436  1.0000
  N   N14       1.0  0.51370  0.77203  0.71359  1.0000
  N   N15       1.0  0.76802  0.49613  0.26659  1.0000
  N   N16       1.0  0.23181  0.50159  0.78299  1.0000
  C   C65       1.0  0.47457  0.89765  0.31994  1.0000
  C   C66       1.0  0.50223  0.91490  0.21467  1.0000
  C  Sn1       1.0  0.52948  0.89154  0.13214  1.0000
  C  Sn2       1.0  0.52894  0.85016  0.15564  1.0000
  C   C67       1.0  0.50114  0.83318  0.26112  1.0000
  C   C68       1.0  0.47401  0.85683  0.34314  1.0000
  H   H29       1.0  0.45357  0.91594  0.38333  1.0000
  O  Te1       1.0  0.55692  0.90926  0.02746  1.0000
  O  Te2       1.0  0.55583  0.82612  0.07463  1.0000
  H   H30       1.0  0.45258  0.84347  0.42455  1.0000
  Mg  Mg1       1.0  0.58918  0.86547  0.94461  1.0000
  C   C69       1.0  0.52389  0.12615  0.85587  1.0000
  C   C70       1.0  0.50226  0.15734  0.79153  1.0000
  C  Sn3       1.0  0.47361  0.15035  0.66971  1.0000
  C  Sn4       1.0  0.46654  0.11137  0.61149  1.0000
  C   C71       1.0  0.48831  0.08037  0.67674  1.0000
  C   C72       1.0  0.51692  0.08769  0.79857  1.0000
  H   H31       1.0  0.54601  0.13181  0.95020  1.0000
  O  Te3       1.0  0.45228  0.18185  0.60672  1.0000
  O  Te4       1.0  0.43806  0.10355  0.48986  1.0000
  H   H32       1.0  0.53364  0.06353  0.84844  1.0000
  Mg  Mg2       1.0  0.41662  0.15629  0.44240  1.0000
  C   C73       1.0  0.53922  0.67356  0.15132  1.0000
  C   C74       1.0  0.51334  0.64890  0.23723  1.0000
  C  Sn5       1.0  0.48177  0.66476  0.32390  1.0000
  C  Sn6       1.0  0.47607  0.70609  0.32432  1.0000
  C   C75       1.0  0.50211  0.73051  0.23790  1.0000
  C   C76       1.0  0.53361  0.71433  0.15162  1.0000
  H   H33       1.0  0.56358  0.66104  0.08449  1.0000
  O  Te5       1.0  0.45620  0.63970  0.40912  1.0000
  O  Te6       1.0  0.44475  0.72272  0.40987  1.0000
  H   H34       1.0  0.55363  0.73343  0.08503  1.0000
  Mg  Mg3       1.0  0.41786  0.67638  0.50746  1.0000
  C   C77       1.0  0.45738  0.32717  0.64365  1.0000
  C   C78       1.0  0.48468  0.35089  0.72917  1.0000
  C  Sn7       1.0  0.51637  0.33392  0.81218  1.0000
  C  Sn8       1.0  0.52073  0.29242  0.80927  1.0000
  C   C79       1.0  0.49328  0.26894  0.72327  1.0000
  C   C80       1.0  0.46168  0.28623  0.64066  1.0000
  H   H35       1.0  0.43294  0.34054  0.57966  1.0000
  O  Te7       1.0  0.54336  0.35806  0.89707  1.0000
  O  Te8       1.0  0.55214  0.27469  0.89113  1.0000
  H   H36       1.0  0.44056  0.26785  0.57437  1.0000
  Mg  Mg4       1.0  0.58123  0.32004  0.98976  1.0000
  C   C81       1.0  0.69564  0.52814  0.14113  1.0000
  C   C82       1.0  0.72219  0.50563  0.23203  1.0000
  C  Sn9       1.0  0.70859  0.47492  0.33166  1.0000
  C  Sn10      1.0  0.66762  0.46665  0.34015  1.0000
  C   C83       1.0  0.64130  0.48932  0.24864  1.0000
  C   C84       1.0  0.65523  0.51999  0.14939  1.0000
  H   H37       1.0  0.70642  0.55186  0.06426  1.0000
  O  Te9       1.0  0.73552  0.45273  0.42172  1.0000
  O  Te10      1.0  0.65323  0.43611  0.43869  1.0000
  H   H38       1.0  0.63467  0.53739  0.07894  1.0000
  Mg  Mg5       1.0  0.70156  0.41420  0.53838  1.0000
  C   C85       1.0  0.30332  0.53645  0.86286  1.0000
  C   C86       1.0  0.27768  0.51079  0.77808  1.0000
  C  Sn11      1.0  0.29251  0.48016  0.68167  1.0000
  C  Sn12      1.0  0.33380  0.47519  0.67018  1.0000
  C   C87       1.0  0.35920  0.50100  0.75556  1.0000
  C   C88       1.0  0.34404  0.53156  0.85165  1.0000
  H   H39       1.0  0.29159  0.56008  0.93728  1.0000
  O  Te11      1.0  0.26648  0.45481  0.59773  1.0000
  O  Te12      1.0  0.34942  0.44482  0.57474  1.0000
  H   H40       1.0  0.36390  0.55140  0.91735  1.0000
  Mg  Mg6       1.0  0.30198  0.41786  0.48334  1.0000
  C   C89       1.0  0.13982  0.54181  0.38263  1.0000
  C   C90       1.0  0.15812  0.51604  0.27277  1.0000
  C  Sn13      1.0  0.13592  0.48772  0.18596  1.0000
  C  Sn14      1.0  0.09464  0.48525  0.20980  1.0000
  C   C91       1.0  0.07661  0.51119  0.31989  1.0000
  C   C92       1.0  0.09911  0.53940  0.40617  1.0000
  H   H41       1.0  0.15723  0.56366  0.44932  1.0000
  O  Te13      1.0  0.15467  0.46219  0.07673  1.0000
  O  Te14      1.0  0.07174  0.45724  0.12458  1.0000
  H   H42       1.0  0.08493  0.55937  0.49113  1.0000
  Mg  Mg7       1.0  0.11247  0.43042  0.98918  1.0000
  C   C93       1.0  0.87719  0.52034  0.65413  1.0000
  C   C94       1.0  0.84574  0.49551  0.69608  1.0000
  C  Sn15      1.0  0.85060  0.46654  0.81633  1.0000
  C  Sn16      1.0  0.88766  0.46243  0.89587  1.0000
  C   C95       1.0  0.91893  0.48743  0.85311  1.0000
  C   C96       1.0  0.91375  0.51631  0.73257  1.0000
  H   H43       1.0  0.87318  0.54270  0.56093  1.0000
  O  Te15      1.0  0.81888  0.44197  0.85672  1.0000
  O  Te16      1.0  0.89168  0.43232  0.01654  1.0000
  H   H44       1.0  0.93809  0.53555  0.70019  1.0000
  Mg  Mg8       1.0  0.83952  0.40590  0.02895  1.0000
  C   C97       1.0  0.55635  0.13719  0.40803  1.0000
  C   C98       1.0  0.53401  0.16086  0.30333  1.0000
  C  Sn17      1.0  0.50167  0.14495  0.21744  1.0000
  C  Sn18      1.0  0.49156  0.10458  0.23702  1.0000
  C   C99       1.0  0.51407  0.08114  0.34216  1.0000
  C   C100      1.0  0.54639  0.09737  0.42747  1.0000
  H   H45       1.0  0.58134  0.14974  0.47412  1.0000
  O  Te17      1.0  0.47968  0.16902  0.11328  1.0000
  O  Te18      1.0  0.45937  0.08792  0.15271  1.0000
  H   H46       1.0  0.56366  0.07903  0.50861  1.0000
  Mg  Mg9       1.0  0.43846  0.13271  0.02489  1.0000
  C   C101      1.0  0.51912  0.86932  0.68539  1.0000
  C   C102      1.0  0.49330  0.84060  0.74631  1.0000
  C  Sn19      1.0  0.46165  0.85138  0.84552  1.0000
  C  Sn20      1.0  0.45581  0.89169  0.88421  1.0000
  C   C103      1.0  0.48178  0.92021  0.82257  1.0000
  C   C104      1.0  0.51337  0.90909  0.72345  1.0000
  H   H47       1.0  0.54354  0.86073  0.60862  1.0000
  O  Te19      1.0  0.43615  0.82230  0.90540  1.0000
  O  Te20      1.0  0.42441  0.90329  0.98304  1.0000
  H   H48       1.0  0.53334  0.93134  0.67621  1.0000
  Mg  Mg10      1.0  0.39601  0.85136  0.03526  1.0000
  C   C105      1.0  0.52640  0.32483  0.34998  1.0000
  C   C106      1.0  0.50180  0.34916  0.25776  1.0000
  C  Sn21      1.0  0.47214  0.33278  0.15744  1.0000
  C  Sn22      1.0  0.46707  0.29127  0.14958  1.0000
  C   C107      1.0  0.49182  0.26718  0.24240  1.0000
  C   C108      1.0  0.52141  0.28388  0.34234  1.0000
  H   H49       1.0  0.54929  0.33774  0.42738  1.0000
  O  Te21      1.0  0.44783  0.35752  0.06607  1.0000
  O  Te22      1.0  0.43765  0.27412  0.05036  1.0000
  H   H50       1.0  0.54044  0.26503  0.41381  1.0000
  Mg  Mg11      1.0  0.41357  0.32159  0.94890  1.0000
  C   C109      1.0  0.54159  0.67626  0.63182  1.0000
  C   C110      1.0  0.51807  0.65165  0.72900  1.0000
  C  Sn23      1.0  0.48866  0.66754  0.82818  1.0000
  C  Sn24      1.0  0.48274  0.70883  0.82980  1.0000
  C   C111      1.0  0.50641  0.73319  0.73204  1.0000
  C   C112      1.0  0.53577  0.71699  0.63330  1.0000
  H   H51       1.0  0.56430  0.66372  0.55535  1.0000
  O  Te23      1.0  0.46543  0.64253  0.92456  1.0000
  O  Te24      1.0  0.45355  0.72549  0.92773  1.0000
  H   H52       1.0  0.55396  0.73604  0.55799  1.0000
  Mg  Mg12      1.0  0.42779  0.67781  0.03760  1.0000
  C   C113      1.0  0.31595  0.47436  0.17759  1.0000
  C   C114      1.0  0.34548  0.50032  0.23317  1.0000
  C  Sn25      1.0  0.33592  0.53334  0.32797  1.0000
  C  Sn26      1.0  0.29601  0.54041  0.36772  1.0000
  C   C115      1.0  0.26668  0.51425  0.31163  1.0000
  C   C116      1.0  0.27658  0.48131  0.21680  1.0000
  H   H53       1.0  0.32360  0.44886  0.10430  1.0000
  O  Te25      1.0  0.36579  0.55898  0.38244  1.0000
  O  Te26      1.0  0.28563  0.57318  0.46233  1.0000
  H   H54       1.0  0.25371  0.46120  0.17388  1.0000
  Mg  Mg13      1.0  0.33688  0.59958  0.50783  1.0000
  C   C117      1.0  0.67334  0.45608  0.84603  1.0000
  C   C118      1.0  0.65093  0.48659  0.78070  1.0000
  C  Sn27      1.0  0.66926  0.51783  0.69842  1.0000
  C  Sn28      1.0  0.71079  0.51844  0.68139  1.0000
  C   C119      1.0  0.73294  0.48776  0.74708  1.0000
  C   C120      1.0  0.71430  0.45665  0.82923  1.0000
  H   H55       1.0  0.65892  0.43199  0.90951  1.0000
  O  Te27      1.0  0.64643  0.54809  0.63395  1.0000
  O  Te28      1.0  0.72986  0.54930  0.59969  1.0000
  H   H56       1.0  0.73165  0.43301  0.87970  1.0000
  Mg  Mg14      1.0  0.68600  0.58375  0.53303  1.0000
  C   C121      1.0  0.88484  0.55216  0.08026  1.0000
  C   C122      1.0  0.91069  0.52530  0.15131  1.0000
  C  Sn29      1.0  0.89634  0.49511  0.25193  1.0000
  C  Sn30      1.0  0.85534  0.49182  0.28172  1.0000
  C   C123      1.0  0.82971  0.51883  0.20997  1.0000
  C   C124      1.0  0.84439  0.54893  0.10952  1.0000
  H   H57       1.0  0.89619  0.57544  0.00247  1.0000
  O  Te29      1.0  0.92258  0.46853  0.32199  1.0000
  O  Te30      1.0  0.84020  0.46192  0.38174  1.0000
  H   H58       1.0  0.82436  0.56971  0.05445  1.0000
  Mg  Mg15      1.0  0.88776  0.43285  0.44942  1.0000
  C   C125      1.0  0.13633  0.44497  0.59421  1.0000
  C   C126      1.0  0.16245  0.47034  0.67788  1.0000
  C  Sn31      1.0  0.14826  0.50224  0.76865  1.0000
  C  Sn32      1.0  0.10715  0.50877  0.77559  1.0000
  C   C127      1.0  0.08126  0.48320  0.69155  1.0000
  C   C128      1.0  0.09577  0.45138  0.60104  1.0000
  H   H59       1.0  0.14755  0.42033  0.52425  1.0000
  O  Te31      1.0  0.17477  0.52731  0.85146  1.0000
  O  Te32      1.0  0.09218  0.54041  0.86544  1.0000
  H   H60       1.0  0.07554  0.43172  0.53636  1.0000
  Mg  Mg16      1.0  0.14008  0.56639  0.95742  1.0000
