data_image0
_chemical_formula_structural       H104C208N16SnCSn2CSnTe4Mg2SnCSn2CSnTe4Mg2SnCSn2CSnTe4Mg2SnCSn2CSnTe4Mg2SnCSn2CSnTe4Mg2SnCSn2CSnTe4Mg2SnCSn2CSnTe4Mg2SnCSn2CSnTe4Mg2SnCSn2CSnTe4Mg2SnCSn2CSnTe4Mg2SnCSn2CSnTe4Mg2SnCSn2CSnTe4Mg2SnCSn2CSnTe4Mg2SnCSn2CSnTe4Mg2SnCSn2CSnTe4Mg2SnCSn2CSnTe4Mg2
_chemical_formula_sum              "H104 C240 N16 Sn64 Te64 Mg32"
_cell_length_a       46.686
_cell_length_b       43.5384
_cell_length_c       7.92377
_cell_angle_alpha    90.535
_cell_angle_beta     94.3963
_cell_angle_gamma    89.7532

_symmetry_space_group_name_H-M    'P1'
_space_group_IT_number       1

loop_
  _space_group_symop_operation_xyz
  'x, y, z'

loop_
  _atom_site_type_symbol
  _atom_site_label
  _atom_site_symmetry_multiplicity
  _atom_site_fract_x
  _atom_site_fract_y
  _atom_site_fract_z
  _atom_site_occupancy
  H   H1        1.0  0.56399  0.97519  0.24485  1.0000
  H   H2        1.0  0.43941  0.97410  0.74425  1.0000
  H   H3        1.0  0.06294  0.47450  0.24905  1.0000
  H   H4        1.0  0.93775  0.47470  0.75261  1.0000
  H   H5        1.0  0.43869  0.03012  0.74750  1.0000
  H   H6        1.0  0.56342  0.03136  0.24712  1.0000
  H   H7        1.0  0.93836  0.53070  0.74899  1.0000
  H   H8        1.0  0.06364  0.53046  0.24416  1.0000
  H   H9        1.0  0.52804  0.88616  0.25918  1.0000
  H   H10       1.0  0.02389  0.38358  0.25325  1.0000
  H   H11       1.0  0.47541  0.12101  0.74869  1.0000
  H   H12       1.0  0.52537  0.12069  0.26747  1.0000
  H   H13       1.0  0.97659  0.62096  0.74076  1.0000
  H   H14       1.0  0.56955  0.85436  0.34947  1.0000
  H   H15       1.0  0.06453  0.35004  0.34113  1.0000
  H   H16       1.0  0.43408  0.15298  0.65350  1.0000
  H   H17       1.0  0.56672  0.15275  0.36192  1.0000
  H   H18       1.0  0.93561  0.65353  0.64717  1.0000
  H   H19       1.0  0.62458  0.91494  0.09726  1.0000
  H   H20       1.0  0.12209  0.41218  0.12096  1.0000
  H   H21       1.0  0.37748  0.08966  0.87325  1.0000
  H   H22       1.0  0.62272  0.09081  0.11713  1.0000
  H   H23       1.0  0.87846  0.59116  0.86958  1.0000
  H   H24       1.0  0.58240  0.94755  0.00831  1.0000
  H   H25       1.0  0.08093  0.44593  0.02969  1.0000
  H   H26       1.0  0.41943  0.05765  0.97359  1.0000
  H   H27       1.0  0.58069  0.05901  0.01668  1.0000
  H   H28       1.0  0.92009  0.55882  0.97048  1.0000
  H   H29       1.0  0.67824  0.15600  0.30233  1.0000
  H   H30       1.0  0.17858  0.65747  0.28662  1.0000
  H   H31       1.0  0.82399  0.65851  0.69288  1.0000
  H   H32       1.0  0.68136  0.84909  0.28094  1.0000
  H   H33       1.0  0.17607  0.34562  0.29565  1.0000
  H   H34       1.0  0.72111  0.18657  0.40743  1.0000
  H   H35       1.0  0.22084  0.68925  0.38751  1.0000
  H   H36       1.0  0.78186  0.69043  0.58900  1.0000
  H   H37       1.0  0.72371  0.81755  0.38572  1.0000
  H   H38       1.0  0.21832  0.31292  0.38673  1.0000
  H   H39       1.0  0.66770  0.24232  0.70692  1.0000
  H   H40       1.0  0.16679  0.74412  0.68739  1.0000
  H   H41       1.0  0.83636  0.74312  0.28885  1.0000
  H   H42       1.0  0.66815  0.75945  0.64959  1.0000
  H   H43       1.0  0.16437  0.25762  0.67793  1.0000
  H   H44       1.0  0.62506  0.21182  0.60279  1.0000
  H   H45       1.0  0.12469  0.71247  0.58699  1.0000
  H   H46       1.0  0.87830  0.71160  0.39247  1.0000
  H   H47       1.0  0.62615  0.79071  0.54539  1.0000
  H   H48       1.0  0.12262  0.29033  0.58894  1.0000
  H   H49       1.0  0.60472  0.16835  0.47294  1.0000
  H   H50       1.0  0.39579  0.16689  0.52797  1.0000
  H   H51       1.0  0.10539  0.66756  0.46470  1.0000
  H   H52       1.0  0.89776  0.66793  0.52284  1.0000
  H   H53       1.0  0.39645  0.83770  0.52522  1.0000
  H   H54       1.0  0.60611  0.83360  0.42007  1.0000
  H   H55       1.0  0.89423  0.33888  0.54367  1.0000
  H   H56       1.0  0.10302  0.33579  0.47072  1.0000
  H   H57       1.0  0.56261  0.96844  0.75084  1.0000
  H   H58       1.0  0.43836  0.96834  0.24719  1.0000
  H   H59       1.0  0.06204  0.46945  0.75409  1.0000
  H   H60       1.0  0.93754  0.46986  0.25256  1.0000
  H   H61       1.0  0.43828  0.02459  0.24844  1.0000
  H   H62       1.0  0.56314  0.02452  0.74693  1.0000
  H   H63       1.0  0.93820  0.52604  0.24960  1.0000
  H   H64       1.0  0.06297  0.52549  0.74810  1.0000
  H   H65       1.0  0.47271  0.88026  0.22406  1.0000
  H   H66       1.0  0.02488  0.38002  0.77067  1.0000
  H   H67       1.0  0.97189  0.38060  0.23966  1.0000
  H   H68       1.0  0.42910  0.85193  0.11967  1.0000
  H   H69       1.0  0.06739  0.34953  0.86929  1.0000
  H   H70       1.0  0.92849  0.35162  0.13858  1.0000
  H   H71       1.0  0.37741  0.91409  0.39274  1.0000
  H   H72       1.0  0.12144  0.41101  0.61790  1.0000
  H   H73       1.0  0.87635  0.41502  0.40019  1.0000
  H   H74       1.0  0.42148  0.94281  0.49774  1.0000
  H   H75       1.0  0.07843  0.44164  0.51536  1.0000
  H   H76       1.0  0.92016  0.44453  0.50068  1.0000
  H   H77       1.0  0.67765  0.13313  0.79352  1.0000
  H   H78       1.0  0.67434  0.86239  0.82602  1.0000
  H   H79       1.0  0.17600  0.36321  0.81184  1.0000
  H   H80       1.0  0.72129  0.16577  0.78010  1.0000
  H   H81       1.0  0.71929  0.83280  0.78371  1.0000
  H   H82       1.0  0.21966  0.33116  0.77453  1.0000
  H   H83       1.0  0.68291  0.23549  0.07837  1.0000
  H   H84       1.0  0.68477  0.75471  0.02530  1.0000
  H   H85       1.0  0.18383  0.25796  0.04975  1.0000
  H   H86       1.0  0.63981  0.20261  0.09497  1.0000
  H   H87       1.0  0.64021  0.78427  0.06877  1.0000
  H   H88       1.0  0.14052  0.29005  0.08925  1.0000
  H   H89       1.0  0.61005  0.15834  0.97898  1.0000
  H   H90       1.0  0.38930  0.15660  0.03114  1.0000
  H   H91       1.0  0.11085  0.65943  0.96997  1.0000
  H   H92       1.0  0.89125  0.65880  0.02361  1.0000
  H   H93       1.0  0.38785  0.83849  0.00726  1.0000
  H   H94       1.0  0.60784  0.83022  0.98400  1.0000
  H   H95       1.0  0.88671  0.33892  0.01879  1.0000
  H   H96       1.0  0.10918  0.33456  0.98857  1.0000
  H   H97       1.0  0.50189  0.89697  0.00228  1.0000
  H   H98       1.0  0.99882  0.39693  0.01017  1.0000
  H   H99       1.0  0.49989  0.10856  0.00492  1.0000
  H   H100      1.0  0.00142  0.60837  0.99527  1.0000
  H   H101      1.0  0.49930  0.89064  0.50446  1.0000
  H   H102      1.0  0.99841  0.39188  0.50945  1.0000
  H   H103      1.0  0.50012  0.10216  0.50395  1.0000
  H   H104      1.0  0.00128  0.60339  0.49656  1.0000
  C   C1        1.0  0.52607  0.93744  0.06867  1.0000
  C   C2        1.0  0.47697  0.93681  0.92849  1.0000
  C   C3        1.0  0.02405  0.43676  0.07671  1.0000
  C   C4        1.0  0.97500  0.43727  0.93590  1.0000
  C   C5        1.0  0.47602  0.06813  0.92914  1.0000
  C   C6        1.0  0.52465  0.06851  0.07449  1.0000
  C   C7        1.0  0.97673  0.56830  0.92381  1.0000
  C   C8        1.0  0.02546  0.56801  0.06806  1.0000
  C   C9        1.0  0.52529  0.97008  0.07760  1.0000
  C   C10       1.0  0.47741  0.96950  0.91785  1.0000
  C   C11       1.0  0.02404  0.46951  0.08273  1.0000
  C   C12       1.0  0.97607  0.46983  0.92347  1.0000
  C   C13       1.0  0.47684  0.03544  0.91932  1.0000
  C   C14       1.0  0.52460  0.03582  0.08036  1.0000
  C   C15       1.0  0.97690  0.53558  0.91807  1.0000
  C   C16       1.0  0.02480  0.53537  0.07760  1.0000
  C   C17       1.0  0.54719  0.98744  0.17027  1.0000
  C   C18       1.0  0.45561  0.98655  0.82299  1.0000
  C   C19       1.0  0.04632  0.48674  0.17308  1.0000
  C   C20       1.0  0.95443  0.48702  0.82823  1.0000
  C   C21       1.0  0.45528  0.01796  0.82420  1.0000
  C   C22       1.0  0.54685  0.01883  0.17181  1.0000
  C   C23       1.0  0.95480  0.51839  0.82594  1.0000
  C   C24       1.0  0.04672  0.51814  0.17046  1.0000
  C   C25       1.0  0.55178  0.91942  0.12743  1.0000
  C   C26       1.0  0.04907  0.41786  0.13783  1.0000
  C   C27       1.0  0.54980  0.08683  0.13885  1.0000
  C   C28       1.0  0.45075  0.08626  0.86450  1.0000
  C   C29       1.0  0.95166  0.58671  0.85873  1.0000
  C   C30       1.0  0.54913  0.89240  0.22117  1.0000
  C   C31       1.0  0.04538  0.39005  0.22324  1.0000
  C   C32       1.0  0.45397  0.11384  0.77627  1.0000
  C   C33       1.0  0.54669  0.11399  0.23382  1.0000
  C   C34       1.0  0.95511  0.61414  0.76951  1.0000
  C   C35       1.0  0.57281  0.87445  0.27280  1.0000
  C   C36       1.0  0.06848  0.37120  0.27481  1.0000
  C   C37       1.0  0.43049  0.13187  0.72107  1.0000
  C   C38       1.0  0.57019  0.13200  0.28866  1.0000
  C   C39       1.0  0.93182  0.63247  0.71469  1.0000
  C   C40       1.0  0.60063  0.88243  0.23014  1.0000
  C   C41       1.0  0.09678  0.37933  0.24263  1.0000
  C   C42       1.0  0.40232  0.12302  0.75217  1.0000
  C   C43       1.0  0.59822  0.12351  0.25053  1.0000
  C   C44       1.0  0.90357  0.62407  0.74658  1.0000
  C   C45       1.0  0.60332  0.90917  0.13431  1.0000
  C   C46       1.0  0.10049  0.40656  0.15272  1.0000
  C   C47       1.0  0.39905  0.09588  0.84364  1.0000
  C   C48       1.0  0.60133  0.09676  0.15251  1.0000
  C   C49       1.0  0.90005  0.59705  0.83874  1.0000
  C   C50       1.0  0.57955  0.92735  0.08495  1.0000
  C   C51       1.0  0.07731  0.42546  0.10259  1.0000
  C   C52       1.0  0.42264  0.07793  0.89824  1.0000
  C   C53       1.0  0.57773  0.07890  0.09769  1.0000
  C   C54       1.0  0.92347  0.57887  0.89365  1.0000
  C   C55       1.0  0.67616  0.17493  0.39106  1.0000
  C   C56       1.0  0.17621  0.67649  0.37442  1.0000
  C   C57       1.0  0.82654  0.67726  0.60564  1.0000
  C   C58       1.0  0.67877  0.82959  0.36325  1.0000
  C   C59       1.0  0.17382  0.32633  0.37982  1.0000
  C   C60       1.0  0.70006  0.19201  0.45044  1.0000
  C   C61       1.0  0.19978  0.69426  0.43145  1.0000
  C   C62       1.0  0.80307  0.69506  0.54711  1.0000
  C   C63       1.0  0.70233  0.81192  0.42184  1.0000
  C   C64       1.0  0.19737  0.30807  0.43168  1.0000
  C   C65       1.0  0.69756  0.21507  0.57390  1.0000
  C   C66       1.0  0.19700  0.71741  0.55409  1.0000
  C   C67       1.0  0.80605  0.71776  0.42482  1.0000
  C   C68       1.0  0.69906  0.78768  0.53518  1.0000
  C   C69       1.0  0.19476  0.28434  0.54880  1.0000
  C   C70       1.0  0.66993  0.22332  0.61910  1.0000
  C   C71       1.0  0.16930  0.72507  0.60025  1.0000
  C   C72       1.0  0.83374  0.72469  0.37767  1.0000
  C   C73       1.0  0.67107  0.77918  0.56996  1.0000
  C   C74       1.0  0.16708  0.27704  0.59563  1.0000
  C   C75       1.0  0.64612  0.20618  0.56065  1.0000
  C   C76       1.0  0.14579  0.70725  0.54416  1.0000
  C   C77       1.0  0.85718  0.70691  0.43568  1.0000
  C   C78       1.0  0.64756  0.79682  0.51174  1.0000
  C   C79       1.0  0.14362  0.29543  0.54520  1.0000
  C   C80       1.0  0.64898  0.18085  0.45167  1.0000
  C   C81       1.0  0.14905  0.68175  0.43676  1.0000
  C   C82       1.0  0.85385  0.68214  0.54528  1.0000
  C   C83       1.0  0.65107  0.82315  0.41382  1.0000
  C   C84       1.0  0.14669  0.32108  0.44135  1.0000
  C   C85       1.0  0.72296  0.22876  0.67332  1.0000
  C   C86       1.0  0.27736  0.22889  0.33757  1.0000
  C   C87       1.0  0.22229  0.73143  0.65281  1.0000
  C   C88       1.0  0.78066  0.73207  0.32895  1.0000
  C   C89       1.0  0.27879  0.77189  0.35630  1.0000
  C   C90       1.0  0.72409  0.77245  0.62980  1.0000
  C   C91       1.0  0.77840  0.27046  0.37497  1.0000
  C   C92       1.0  0.22035  0.26907  0.63810  1.0000
  C   C93       1.0  0.74357  0.24404  0.57884  1.0000
  C   C94       1.0  0.25656  0.24394  0.43404  1.0000
  C   C95       1.0  0.24302  0.74649  0.55825  1.0000
  C   C96       1.0  0.76051  0.74776  0.42659  1.0000
  C   C97       1.0  0.25884  0.75721  0.45785  1.0000
  C   C98       1.0  0.74496  0.75857  0.52957  1.0000
  C   C99       1.0  0.75890  0.25510  0.47671  1.0000
  C   C100      1.0  0.24057  0.25452  0.53545  1.0000
  C   C101      1.0  0.62372  0.16219  0.40593  1.0000
  C   C102      1.0  0.37689  0.16146  0.59668  1.0000
  C   C103      1.0  0.12425  0.66221  0.39440  1.0000
  C   C104      1.0  0.87870  0.66279  0.59080  1.0000
  C   C105      1.0  0.37774  0.84283  0.59719  1.0000
  C   C106      1.0  0.62581  0.84182  0.36777  1.0000
  C   C107      1.0  0.87538  0.34391  0.61464  1.0000
  C   C108      1.0  0.12176  0.34059  0.39925  1.0000
  C   C109      1.0  0.52401  0.93075  0.57574  1.0000
  C   C110      1.0  0.47588  0.93121  0.42801  1.0000
  C   C111      1.0  0.02336  0.43196  0.57854  1.0000
  C   C112      1.0  0.97492  0.43254  0.43442  1.0000
  C   C113      1.0  0.47591  0.06184  0.43274  1.0000
  C   C114      1.0  0.52492  0.06192  0.56983  1.0000
  C   C115      1.0  0.97648  0.56325  0.42889  1.0000
  C   C116      1.0  0.02540  0.56293  0.56678  1.0000
  C   C117      1.0  0.52412  0.96345  0.58110  1.0000
  C   C118      1.0  0.47670  0.96374  0.41772  1.0000
  C   C119      1.0  0.02350  0.46465  0.58446  1.0000
  C   C120      1.0  0.97591  0.46508  0.42279  1.0000
  C   C121      1.0  0.47669  0.02926  0.41938  1.0000
  C   C122      1.0  0.52457  0.02928  0.57824  1.0000
  C   C123      1.0  0.97671  0.53063  0.41945  1.0000
  C   C124      1.0  0.02456  0.53035  0.57822  1.0000
  C   C125      1.0  0.54617  0.98070  0.67366  1.0000
  C   C126      1.0  0.45488  0.98083  0.32318  1.0000
  C   C127      1.0  0.04567  0.48178  0.67666  1.0000
  C   C128      1.0  0.95423  0.48226  0.32765  1.0000
  C   C129      1.0  0.45483  0.01220  0.32426  1.0000
  C   C130      1.0  0.54646  0.01211  0.67168  1.0000
  C   C131      1.0  0.95459  0.51362  0.32628  1.0000
  C   C132      1.0  0.04622  0.51315  0.67319  1.0000
  C   C133      1.0  0.45015  0.91400  0.36482  1.0000
  C   C134      1.0  0.94914  0.41520  0.37287  1.0000
  C   C135      1.0  0.04857  0.41380  0.64097  1.0000
  C   C136      1.0  0.45183  0.88767  0.26181  1.0000
  C   C137      1.0  0.04603  0.38699  0.73665  1.0000
  C   C138      1.0  0.95092  0.38828  0.27455  1.0000
  C   C139      1.0  0.42726  0.87179  0.20247  1.0000
  C   C140      1.0  0.07001  0.36985  0.79335  1.0000
  C   C141      1.0  0.92646  0.37203  0.21697  1.0000
  C   C142      1.0  0.40002  0.88180  0.24645  1.0000
  C   C143      1.0  0.09769  0.37904  0.75496  1.0000
  C   C144      1.0  0.89912  0.38214  0.25865  1.0000
  C   C145      1.0  0.39845  0.90741  0.35467  1.0000
  C   C146      1.0  0.10014  0.40505  0.65315  1.0000
  C   C147      1.0  0.89742  0.40833  0.36272  1.0000
  C   C148      1.0  0.42299  0.92333  0.41201  1.0000
  C   C149      1.0  0.07615  0.42211  0.59767  1.0000
  C   C150      1.0  0.92186  0.42466  0.41778  1.0000
  C   C151      1.0  0.67922  0.15546  0.85593  1.0000
  C   C152      1.0  0.67706  0.83889  0.86949  1.0000
  C   C153      1.0  0.17810  0.34022  0.86371  1.0000
  C   C154      1.0  0.70329  0.17363  0.84858  1.0000
  C   C155      1.0  0.70184  0.82245  0.84621  1.0000
  C   C156      1.0  0.20217  0.32240  0.84306  1.0000
  C   C157      1.0  0.70364  0.20383  0.91475  1.0000
  C   C158      1.0  0.70360  0.79106  0.88755  1.0000
  C   C159      1.0  0.20301  0.29150  0.89515  1.0000
  C   C160      1.0  0.68188  0.21302  0.01691  1.0000
  C   C161      1.0  0.68256  0.77836  0.98268  1.0000
  C   C162      1.0  0.18214  0.28107  0.99867  1.0000
  C   C163      1.0  0.65762  0.19460  0.02515  1.0000
  C   C164      1.0  0.65752  0.79500  0.00632  1.0000
  C   C165      1.0  0.15784  0.29908  0.01993  1.0000
  C   C166      1.0  0.65507  0.16680  0.93315  1.0000
  C   C167      1.0  0.65354  0.82447  0.93661  1.0000
  C   C168      1.0  0.15445  0.32769  0.93914  1.0000
  C   C169      1.0  0.72422  0.22580  0.84742  1.0000
  C   C170      1.0  0.27578  0.22581  0.16303  1.0000
  C   C171      1.0  0.22369  0.72852  0.82694  1.0000
  C   C172      1.0  0.77829  0.72830  0.15504  1.0000
  C   C173      1.0  0.27599  0.77313  0.18141  1.0000
  C   C174      1.0  0.72510  0.77199  0.80458  1.0000
  C   C175      1.0  0.77572  0.27172  0.20015  1.0000
  C   C176      1.0  0.22290  0.27026  0.81317  1.0000
  C   C177      1.0  0.74315  0.24190  0.96724  1.0000
  C   C178      1.0  0.25657  0.24173  0.04461  1.0000
  C   C179      1.0  0.24286  0.74434  0.94691  1.0000
  C   C180      1.0  0.75895  0.74410  0.03720  1.0000
  C   C181      1.0  0.25647  0.75623  0.06832  1.0000
  C   C182      1.0  0.74503  0.75559  0.91649  1.0000
  C   C183      1.0  0.75660  0.25426  0.08767  1.0000
  C   C184      1.0  0.24267  0.25353  0.92480  1.0000
  C   C185      1.0  0.62761  0.15115  0.90283  1.0000
  C   C186      1.0  0.37166  0.14936  0.10538  1.0000
  C   C187      1.0  0.12838  0.65224  0.89356  1.0000
  C   C188      1.0  0.87347  0.65153  0.09675  1.0000
  C   C189      1.0  0.37058  0.84690  0.08222  1.0000
  C   C190      1.0  0.62540  0.83923  0.91417  1.0000
  C   C191      1.0  0.86965  0.34678  0.09686  1.0000
  C   C192      1.0  0.12658  0.34296  0.91548  1.0000
  C   C193      1.0  0.50116  0.98621  0.99838  1.0000
  C   C194      1.0  0.00026  0.48607  0.00189  1.0000
  C   C195      1.0  0.50086  0.01921  0.99937  1.0000
  C   C196      1.0  0.00066  0.51905  0.99919  1.0000
  C   C197      1.0  0.50158  0.92194  0.00043  1.0000
  C   C198      1.0  0.99924  0.42188  0.00800  1.0000
  C   C199      1.0  0.50014  0.08356  0.00331  1.0000
  C   C200      1.0  0.00122  0.58339  0.99561  1.0000
  C   C201      1.0  0.50058  0.97998  0.49847  1.0000
  C   C202      1.0  0.99999  0.48124  0.50206  1.0000
  C   C203      1.0  0.50068  0.01289  0.49813  1.0000
  C   C204      1.0  0.00046  0.51412  0.49955  1.0000
  C   C205      1.0  0.49968  0.91562  0.50288  1.0000
  C   C206      1.0  0.99885  0.41688  0.50788  1.0000
  C   C207      1.0  0.50032  0.07718  0.50229  1.0000
  C   C208      1.0  0.00106  0.57840  0.49727  1.0000
  N   N1        1.0  0.62350  0.14006  0.29547  1.0000
  N   N2        1.0  0.37709  0.13977  0.70759  1.0000
  N   N3        1.0  0.12422  0.64020  0.28317  1.0000
  N   N4        1.0  0.87854  0.64114  0.70179  1.0000
  N   N5        1.0  0.37811  0.86433  0.71170  1.0000
  N   N6        1.0  0.62614  0.86597  0.27345  1.0000
  N   N7        1.0  0.87537  0.36576  0.72695  1.0000
  N   N8        1.0  0.12166  0.36200  0.28655  1.0000
  N   N9        1.0  0.62503  0.13051  0.78391  1.0000
  N   N10       1.0  0.37431  0.12870  0.22220  1.0000
  N   N11       1.0  0.12588  0.63126  0.77650  1.0000
  N   N12       1.0  0.87587  0.63090  0.21372  1.0000
  N   N13       1.0  0.37377  0.86800  0.19808  1.0000
  N   N14       1.0  0.62254  0.86107  0.80462  1.0000
  N   N15       1.0  0.87300  0.36779  0.21315  1.0000
  N   N16       1.0  0.12355  0.36427  0.80256  1.0000
  C  Sn1       1.0  0.90430  0.58989  0.42188  1.0000
  C   C209      1.0  0.90292  0.61619  0.32175  1.0000
  C  Sn2       1.0  0.92611  0.62426  0.23007  1.0000
  C  Sn3       1.0  0.95118  0.60565  0.23855  1.0000
  C   C210      1.0  0.95254  0.57937  0.33860  1.0000
  C  Sn4       1.0  0.92937  0.57128  0.43036  1.0000
  O  Te1       1.0  0.88086  0.58225  0.51245  1.0000
  O  Te2       1.0  0.92424  0.65066  0.13089  1.0000
  O  Te3       1.0  0.97462  0.61331  0.14786  1.0000
  O  Te4       1.0  0.93123  0.54489  0.52946  1.0000
  Mg  Mg1       1.0  0.96178  0.65147  0.03062  1.0000
  Mg  Mg2       1.0  0.89369  0.54405  0.62971  1.0000
  C  Sn5       1.0  0.32116  0.82101  0.65310  1.0000
  C   C211      1.0  0.34927  0.81836  0.60522  1.0000
  C  Sn6       1.0  0.35522  0.80043  0.46496  1.0000
  C  Sn7       1.0  0.33260  0.78483  0.37050  1.0000
  C   C212      1.0  0.30451  0.78749  0.41838  1.0000
  C  Sn8       1.0  0.29855  0.80541  0.55865  1.0000
  O  Te5       1.0  0.31571  0.83907  0.79376  1.0000
  O  Te6       1.0  0.38349  0.79812  0.41957  1.0000
  O  Te7       1.0  0.33807  0.76677  0.22975  1.0000
  O  Te8       1.0  0.27030  0.80773  0.60402  1.0000
  Mg  Mg3       1.0  0.38009  0.77078  0.21801  1.0000
  Mg  Mg4       1.0  0.27367  0.83507  0.80550  1.0000
  C  Sn9       1.0  0.09754  0.59583  0.08517  1.0000
  C   C213      1.0  0.09803  0.62245  0.18526  1.0000
  C  Sn10      1.0  0.07445  0.63032  0.27531  1.0000
  C  Sn11      1.0  0.04986  0.61118  0.26520  1.0000
  C   C214      1.0  0.04938  0.58457  0.16519  1.0000
  C  Sn12      1.0  0.07295  0.57668  0.07507  1.0000
  O  Te9       1.0  0.13436  0.59004  0.99624  1.0000
  O  Te10      1.0  0.07545  0.65706  0.37448  1.0000
  O  Te11      1.0  0.02604  0.61863  0.35424  1.0000
  O  Te12      1.0  0.08497  0.55161  0.97597  1.0000
  Mg  Mg5       1.0  0.03766  0.65739  0.47217  1.0000
  Mg  Mg6       1.0  0.12274  0.55124  0.87830  1.0000
  C  Sn13      1.0  0.94772  0.38981  0.73281  1.0000
  C   C215      1.0  0.94836  0.41772  0.82158  1.0000
  C  Sn14      1.0  0.92458  0.42743  0.90497  1.0000
  C  Sn15      1.0  0.89964  0.40885  0.89962  1.0000
  C   C216      1.0  0.89901  0.38096  0.81091  1.0000
  C  Sn16      1.0  0.92278  0.37123  0.72745  1.0000
  O  Te13      1.0  0.97174  0.38056  0.65038  1.0000
  O  Te14      1.0  0.92572  0.45542  0.99286  1.0000
  O  Te15      1.0  0.87561  0.41813  0.98215  1.0000
  O  Te16      1.0  0.92164  0.34325  0.63964  1.0000
  Mg  Mg7       1.0  0.87455  0.45646  0.08513  1.0000
  Mg  Mg8       1.0  0.95980  0.34055  0.54740  1.0000
  C  Sn17      1.0  0.40332  0.08746  0.42753  1.0000
  C   C217      1.0  0.40165  0.11406  0.32988  1.0000
  C  Sn18      1.0  0.42471  0.12272  0.23868  1.0000
  C  Sn19      1.0  0.44996  0.10440  0.24512  1.0000
  C   C218      1.0  0.45162  0.07781  0.34270  1.0000
  C  Sn20      1.0  0.42857  0.06914  0.43398  1.0000
  O  Te17      1.0  0.38000  0.07924  0.51767  1.0000
  O  Te18      1.0  0.42255  0.14942  0.14199  1.0000
  O  Te19      1.0  0.47328  0.11264  0.15487  1.0000
  O  Te20      1.0  0.43072  0.04245  0.53059  1.0000
  Mg  Mg9       1.0  0.46003  0.15102  0.04135  1.0000
  Mg  Mg10      1.0  0.39324  0.04082  0.63121  1.0000
  C  Sn21      1.0  0.40301  0.91893  0.81314  1.0000
  C   C219      1.0  0.40295  0.89019  0.73311  1.0000
  C  Sn22      1.0  0.42822  0.87289  0.73266  1.0000
  C  Sn23      1.0  0.45408  0.88456  0.81398  1.0000
  C   C220      1.0  0.45414  0.91329  0.89397  1.0000
  C  Sn24      1.0  0.42888  0.93060  0.89446  1.0000
  O  Te21      1.0  0.37750  0.93582  0.81202  1.0000
  O  Te22      1.0  0.42762  0.84423  0.65177  1.0000
  O  Te23      1.0  0.47961  0.86765  0.81504  1.0000
  O  Te24      1.0  0.42946  0.95925  0.97531  1.0000
  Mg  Mg11      1.0  0.46790  0.82984  0.68780  1.0000
  Mg  Mg12      1.0  0.38920  0.97365  0.93945  1.0000
  C  Sn25      1.0  0.58218  0.91295  0.56657  1.0000
  C   C221      1.0  0.55332  0.90862  0.59545  1.0000
  C  Sn26      1.0  0.54575  0.88881  0.72219  1.0000
  C  Sn27      1.0  0.56747  0.87300  0.82223  1.0000
  C   C222      1.0  0.59631  0.87733  0.79336  1.0000
  C  Sn28      1.0  0.60390  0.89714  0.66662  1.0000
  O  Te25      1.0  0.58926  0.93288  0.43920  1.0000
  O  Te26      1.0  0.51675  0.88485  0.74865  1.0000
  O  Te27      1.0  0.56037  0.85306  0.94968  1.0000
  O  Te28      1.0  0.63288  0.90111  0.64016  1.0000
  Mg  Mg13      1.0  0.51791  0.85527  0.93738  1.0000
  Mg  Mg14      1.0  0.63175  0.93069  0.45153  1.0000
  C  Sn29      1.0  0.31671  0.17117  0.56719  1.0000
  C   C223      1.0  0.34521  0.17510  0.52941  1.0000
  C  Sn30      1.0  0.35381  0.20239  0.45729  1.0000
  C  Sn31      1.0  0.33351  0.22626  0.42229  1.0000
  C   C224      1.0  0.30503  0.22232  0.46009  1.0000
  C  Sn32      1.0  0.29641  0.19503  0.53219  1.0000
  O  Te29      1.0  0.30860  0.14370  0.63926  1.0000
  O  Te30      1.0  0.38242  0.20579  0.42059  1.0000
  O  Te31      1.0  0.34165  0.25374  0.35016  1.0000
  O  Te32      1.0  0.26782  0.19164  0.56891  1.0000
  Mg  Mg15      1.0  0.38307  0.24746  0.32312  1.0000
  Mg  Mg16      1.0  0.26715  0.14998  0.66646  1.0000
  C  Sn33      1.0  0.09777  0.58843  0.57557  1.0000
  C   C225      1.0  0.09901  0.61566  0.67059  1.0000
  C  Sn34      1.0  0.07570  0.62489  0.75958  1.0000
  C  Sn35      1.0  0.05063  0.60651  0.75356  1.0000
  C   C226      1.0  0.04940  0.57929  0.65861  1.0000
  C  Sn36      1.0  0.07269  0.57005  0.56955  1.0000
  O  Te33      1.0  0.12132  0.57966  0.48761  1.0000
  O  Te34      1.0  0.07745  0.65221  0.85365  1.0000
  O  Te35      1.0  0.02706  0.61531  0.84162  1.0000
  O  Te36      1.0  0.07096  0.54275  0.47555  1.0000
  Mg  Mg17      1.0  0.03976  0.65443  0.95198  1.0000
  Mg  Mg18      1.0  0.10864  0.54050  0.37725  1.0000
  C  Sn37      1.0  0.82546  0.28263  0.04374  1.0000
  C   C227      1.0  0.80108  0.28989  0.12819  1.0000
  C  Sn38      1.0  0.79508  0.32036  0.17008  1.0000
  C  Sn39      1.0  0.81383  0.34407  0.12656  1.0000
  C   C228      1.0  0.83819  0.33680  0.04214  1.0000
  C  Sn40      1.0  0.84421  0.30633  0.00022  1.0000
  O  Te37      1.0  0.83103  0.25201  0.00311  1.0000
  O  Te38      1.0  0.77058  0.32705  0.25457  1.0000
  O  Te39      1.0  0.80824  0.37471  0.16727  1.0000
  O  Te40      1.0  0.88169  0.30128  0.91576  1.0000
  Mg  Mg19      1.0  0.77219  0.37227  0.28252  1.0000
  Mg  Mg20      1.0  0.88011  0.25608  0.88768  1.0000
  C  Sn41      1.0  0.83035  0.70276  0.01281  1.0000
  C   C229      1.0  0.83483  0.67334  0.07901  1.0000
  C  Sn42      1.0  0.81184  0.65646  0.13205  1.0000
  C  Sn43      1.0  0.78377  0.66923  0.11855  1.0000
  C   C230      1.0  0.77929  0.69863  0.05236  1.0000
  C  Sn44      1.0  0.81528  0.71718  0.99931  1.0000
  O  Te41      1.0  0.86665  0.72087  0.96056  1.0000
  O  Te42      1.0  0.81686  0.62710  0.19787  1.0000
  O  Te43      1.0  0.76046  0.65274  0.17088  1.0000
  O  Te44      1.0  0.81027  0.74652  0.93350  1.0000
  Mg  Mg21      1.0  0.77818  0.61366  0.25194  1.0000
  Mg  Mg22      1.0  0.84893  0.75997  0.87932  1.0000
  C  Sn45      1.0  0.19550  0.67435  0.78447  1.0000
  C   C231      1.0  0.20069  0.70333  0.85748  1.0000
  C  Sn46      1.0  0.18418  0.71407  0.98557  1.0000
  C  Sn47      1.0  0.14902  0.69381  0.04195  1.0000
  C   C232      1.0  0.15684  0.66649  0.96898  1.0000
  C  Sn48      1.0  0.17334  0.65573  0.84085  1.0000
  O  Te45      1.0  0.21227  0.66407  0.65660  1.0000
  O  Te46      1.0  0.17677  0.74149  0.05659  1.0000
  O  Te47      1.0  0.13224  0.70412  0.16992  1.0000
  O  Te48      1.0  0.16776  0.62669  0.76987  1.0000
  Mg  Mg23      1.0  0.14810  0.74532  0.22726  1.0000
  Mg  Mg24      1.0  0.19643  0.62283  0.59926  1.0000
  C  Sn49      1.0  0.29605  0.83454  0.11764  1.0000
  C   C233      1.0  0.29090  0.80457  0.05863  1.0000
  C  Sn50      1.0  0.31330  0.78662  0.00361  1.0000
  C  Sn51      1.0  0.34145  0.79888  0.00774  1.0000
  C   C234      1.0  0.34659  0.82883  0.06674  1.0000
  C  Sn52      1.0  0.32420  0.84679  0.12177  1.0000
  O  Te49      1.0  0.27333  0.85207  0.17203  1.0000
  O  Te50      1.0  0.32063  0.75837  0.94510  1.0000
  O  Te51      1.0  0.37718  0.78296  0.95328  1.0000
  O  Te52      1.0  0.32987  0.87667  0.18027  1.0000
  Mg  Mg25      1.0  0.35868  0.74350  0.88459  1.0000
  Mg  Mg26      1.0  0.29184  0.89156  0.24090  1.0000
  C  Sn53      1.0  0.80222  0.32101  0.56021  1.0000
  C   C235      1.0  0.80198  0.29499  0.45545  1.0000
  C  Sn54      1.0  0.82770  0.28057  0.42089  1.0000
  C  Sn55      1.0  0.85421  0.29238  0.49261  1.0000
  C   C236      1.0  0.85444  0.31838  0.59732  1.0000
  C  Sn56      1.0  0.82874  0.33282  0.63193  1.0000
  O  Te53      1.0  0.77626  0.33505  0.59304  1.0000
  O  Te54      1.0  0.82691  0.25460  0.31573  1.0000
  O  Te55      1.0  0.88019  0.27831  0.45968  1.0000
  O  Te56      1.0  0.82951  0.35877  0.73704  1.0000
  Mg  Mg27      1.0  0.86798  0.24353  0.30874  1.0000
  Mg  Mg28      1.0  0.78846  0.36985  0.74418  1.0000
  C  Sn57      1.0  0.56633  0.11785  0.81195  1.0000
  C   C237      1.0  0.59494  0.11274  0.77884  1.0000
  C  Sn58      1.0  0.60172  0.09226  0.65099  1.0000
  C  Sn59      1.0  0.57944  0.07657  0.55413  1.0000
  C   C238      1.0  0.55085  0.08169  0.58723  1.0000
  C  Sn60      1.0  0.54404  0.10216  0.71508  1.0000
  O  Te57      1.0  0.56004  0.13842  0.94036  1.0000
  O  Te58      1.0  0.63049  0.08752  0.62028  1.0000
  O  Te59      1.0  0.58575  0.05599  0.42564  1.0000
  O  Te60      1.0  0.51530  0.10691  0.74578  1.0000
  Mg  Mg29      1.0  0.62819  0.05726  0.43172  1.0000
  Mg  Mg30      1.0  0.51757  0.13718  0.93425  1.0000
  C  Sn61      1.0  0.30380  0.17163  0.20559  1.0000
  C   C239      1.0  0.29867  0.20031  0.13122  1.0000
  C  Sn62      1.0  0.31550  0.21040  0.00445  1.0000
  C  Sn63      1.0  0.35091  0.19307  0.95080  1.0000
  C   C240      1.0  0.34302  0.16277  0.02513  1.0000
  C  Sn64      1.0  0.32621  0.15266  0.15195  1.0000
  O  Te61      1.0  0.28671  0.16200  0.33211  1.0000
  O  Te62      1.0  0.32297  0.24080  0.93202  1.0000
  O  Te63      1.0  0.36800  0.20272  0.82418  1.0000
  O  Te64      1.0  0.33173  0.12391  0.22433  1.0000
  Mg  Mg31      1.0  0.35211  0.24374  0.76407  1.0000
  Mg  Mg32      1.0  0.30260  0.12094  0.39222  1.0000
