data_image0
_chemical_formula_structural       H88C192N32SnCSn2CSnTe4Mg2SnCSn2CSnTe4Mg2SnCSn2CSnTe4Mg2SnCSn2CSnTe4Mg2SnCSn2CSnTe4Mg2SnCSn2CSnTe4Mg2SnCSn2CSnTe4Mg2SnCSn2CSnTe4Mg2SnCSn2CSnTe4Mg2SnCSn2CSnTe4Mg2SnCSn2CSnTe4Mg2SnCSn2CSnTe4Mg2SnCSn2CSnTe4Mg2SnCSn2CSnTe4Mg2SnCSn2CSnTe4Mg2SnCSn2CSnTe4Mg2
_chemical_formula_sum              "H88 C224 N32 Sn64 Te64 Mg32"
_cell_length_a       41.9087
_cell_length_b       37.0079
_cell_length_c       7.86823
_cell_angle_alpha    91.2163
_cell_angle_beta     86.9693
_cell_angle_gamma    90.2375

_symmetry_space_group_name_H-M    'P1'
_space_group_IT_number       1

loop_
  _space_group_symop_operation_xyz
  'x, y, z'

loop_
  _atom_site_type_symbol
  _atom_site_label
  _atom_site_symmetry_multiplicity
  _atom_site_fract_x
  _atom_site_fract_y
  _atom_site_fract_z
  _atom_site_occupancy
  H   H1        1.0  0.57185  0.53341  0.02777  1.0000
  H   H2        1.0  0.42766  0.53426  0.46345  1.0000
  H   H3        1.0  0.07278  0.03393  0.03567  1.0000
  H   H4        1.0  0.92956  0.03377  0.47823  1.0000
  H   H5        1.0  0.42852  0.46846  0.47157  1.0000
  H   H6        1.0  0.57263  0.46744  0.03326  1.0000
  H   H7        1.0  0.92989  0.96725  0.47603  1.0000
  H   H8        1.0  0.07296  0.96769  0.03182  1.0000
  H   H9        1.0  0.65913  0.65383  0.18957  1.0000
  H   H10       1.0  0.34052  0.65455  0.30991  1.0000
  H   H11       1.0  0.15902  0.15661  0.18551  1.0000
  H   H12       1.0  0.84004  0.14995  0.29011  1.0000
  H   H13       1.0  0.34198  0.34657  0.32123  1.0000
  H   H14       1.0  0.66025  0.34787  0.19092  1.0000
  H   H15       1.0  0.84114  0.84834  0.31316  1.0000
  H   H16       1.0  0.16077  0.84777  0.18906  1.0000
  H   H17       1.0  0.65712  0.77109  0.17868  1.0000
  H   H18       1.0  0.34289  0.77126  0.34019  1.0000
  H   H19       1.0  0.15904  0.27332  0.16509  1.0000
  H   H20       1.0  0.83707  0.26882  0.38682  1.0000
  H   H21       1.0  0.34314  0.22963  0.31560  1.0000
  H   H22       1.0  0.65667  0.23008  0.13834  1.0000
  H   H23       1.0  0.84057  0.73125  0.35384  1.0000
  H   H24       1.0  0.15859  0.73076  0.17130  1.0000
  H   H25       1.0  0.70955  0.79571  0.27684  1.0000
  H   H26       1.0  0.29109  0.79515  0.23905  1.0000
  H   H27       1.0  0.21220  0.29628  0.26216  1.0000
  H   H28       1.0  0.78522  0.29352  0.29057  1.0000
  H   H29       1.0  0.29046  0.20694  0.21537  1.0000
  H   H30       1.0  0.70782  0.20402  0.23667  1.0000
  H   H31       1.0  0.78853  0.70732  0.25284  1.0000
  H   H32       1.0  0.21124  0.70712  0.26517  1.0000
  H   H33       1.0  0.70642  0.67138  0.05173  1.0000
  H   H34       1.0  0.29332  0.67143  0.44756  1.0000
  H   H35       1.0  0.20553  0.17188  0.04289  1.0000
  H   H36       1.0  0.79225  0.16380  0.39102  1.0000
  H   H37       1.0  0.29550  0.32917  0.46324  1.0000
  H   H38       1.0  0.70744  0.33042  0.06392  1.0000
  H   H39       1.0  0.79335  0.83366  0.44897  1.0000
  H   H40       1.0  0.20789  0.82984  0.04531  1.0000
  H   H41       1.0  0.49910  0.62529  0.24076  1.0000
  H   H42       1.0  0.99959  0.12513  0.25453  1.0000
  H   H43       1.0  0.50153  0.37638  0.25723  1.0000
  H   H44       1.0  0.00097  0.87613  0.24213  1.0000
  H   H45       1.0  0.57016  0.53315  0.51648  1.0000
  H   H46       1.0  0.42884  0.53463  0.97802  1.0000
  H   H47       1.0  0.07356  0.02937  0.53776  1.0000
  H   H48       1.0  0.92997  0.03089  0.98084  1.0000
  H   H49       1.0  0.42925  0.46871  0.98192  1.0000
  H   H50       1.0  0.57065  0.46722  0.52150  1.0000
  H   H51       1.0  0.93014  0.96478  0.98072  1.0000
  H   H52       1.0  0.07303  0.96338  0.53447  1.0000
  H   H53       1.0  0.65823  0.65513  0.68194  1.0000
  H   H54       1.0  0.33860  0.64921  0.80378  1.0000
  H   H55       1.0  0.15953  0.15280  0.70373  1.0000
  H   H56       1.0  0.84312  0.15171  0.79775  1.0000
  H   H57       1.0  0.34088  0.34809  0.81327  1.0000
  H   H58       1.0  0.66093  0.35058  0.70234  1.0000
  H   H59       1.0  0.83889  0.84876  0.82455  1.0000
  H   H60       1.0  0.15759  0.84022  0.67922  1.0000
  H   H61       1.0  0.65525  0.77270  0.67741  1.0000
  H   H62       1.0  0.33714  0.76679  0.84187  1.0000
  H   H63       1.0  0.15924  0.26986  0.64931  1.0000
  H   H64       1.0  0.84245  0.27098  0.88188  1.0000
  H   H65       1.0  0.34318  0.23117  0.81947  1.0000
  H   H66       1.0  0.66113  0.23184  0.64768  1.0000
  H   H67       1.0  0.83822  0.73161  0.85879  1.0000
  H   H68       1.0  0.15331  0.72367  0.67257  1.0000
  H   H69       1.0  0.70708  0.79702  0.78317  1.0000
  H   H70       1.0  0.28430  0.78938  0.74671  1.0000
  H   H71       1.0  0.21181  0.29494  0.74158  1.0000
  H   H72       1.0  0.79095  0.29641  0.78307  1.0000
  H   H73       1.0  0.29069  0.20638  0.72405  1.0000
  H   H74       1.0  0.71305  0.20694  0.73973  1.0000
  H   H75       1.0  0.78569  0.70822  0.75633  1.0000
  H   H76       1.0  0.20547  0.70054  0.77524  1.0000
  H   H77       1.0  0.70496  0.67333  0.54907  1.0000
  H   H78       1.0  0.29056  0.66461  0.93771  1.0000
  H   H79       1.0  0.20637  0.16728  0.56729  1.0000
  H   H80       1.0  0.79607  0.16681  0.89272  1.0000
  H   H81       1.0  0.29384  0.33073  0.94866  1.0000
  H   H82       1.0  0.70961  0.33379  0.57703  1.0000
  H   H83       1.0  0.79144  0.83365  0.96436  1.0000
  H   H84       1.0  0.20325  0.82180  0.53893  1.0000
  H   H85       1.0  0.49936  0.62550  0.74844  1.0000
  H   H86       1.0  0.00100  0.12165  0.75145  1.0000
  H   H87       1.0  0.50048  0.37650  0.75883  1.0000
  H   H88       1.0  0.99997  0.87268  0.74350  1.0000
  C   C1        1.0  0.52724  0.57789  0.18596  1.0000
  C   C2        1.0  0.47154  0.57790  0.30150  1.0000
  C   C3        1.0  0.02831  0.07802  0.19733  1.0000
  C   C4        1.0  0.97262  0.07733  0.31299  1.0000
  C   C5        1.0  0.47313  0.42372  0.31312  1.0000
  C   C6        1.0  0.52870  0.42399  0.19649  1.0000
  C   C7        1.0  0.97330  0.92355  0.30585  1.0000
  C   C8        1.0  0.02901  0.92358  0.18992  1.0000
  C   C9        1.0  0.52705  0.53945  0.17706  1.0000
  C   C10       1.0  0.47233  0.53960  0.31376  1.0000
  C   C11       1.0  0.02828  0.03951  0.18687  1.0000
  C   C12       1.0  0.97370  0.03908  0.32486  1.0000
  C   C13       1.0  0.47322  0.46221  0.32076  1.0000
  C   C14       1.0  0.52786  0.46222  0.18314  1.0000
  C   C15       1.0  0.97399  0.96192  0.32115  1.0000
  C   C16       1.0  0.02855  0.96201  0.18276  1.0000
  C   C17       1.0  0.55265  0.51906  0.09592  1.0000
  C   C18       1.0  0.44725  0.51957  0.39832  1.0000
  C   C19       1.0  0.05361  0.01928  0.10247  1.0000
  C   C20       1.0  0.94866  0.01896  0.40923  1.0000
  C   C21       1.0  0.44769  0.48264  0.40217  1.0000
  C   C22       1.0  0.55306  0.48214  0.09880  1.0000
  C   C23       1.0  0.94883  0.98201  0.40776  1.0000
  C   C24       1.0  0.05373  0.98230  0.10052  1.0000
  C   C25       1.0  0.64012  0.66639  0.12200  1.0000
  C   C26       1.0  0.35945  0.66694  0.38149  1.0000
  C   C27       1.0  0.13981  0.16884  0.11826  1.0000
  C   C28       1.0  0.85821  0.16302  0.36472  1.0000
  C   C29       1.0  0.36123  0.33383  0.38586  1.0000
  C   C30       1.0  0.64110  0.33554  0.12083  1.0000
  C   C31       1.0  0.85985  0.83609  0.38389  1.0000
  C   C32       1.0  0.14154  0.83474  0.12212  1.0000
  C   C33       1.0  0.64669  0.70109  0.07314  1.0000
  C   C34       1.0  0.35289  0.70154  0.43775  1.0000
  C   C35       1.0  0.14668  0.20315  0.06474  1.0000
  C   C36       1.0  0.85036  0.19711  0.42433  1.0000
  C   C37       1.0  0.35467  0.29901  0.43288  1.0000
  C   C38       1.0  0.64733  0.30096  0.06273  1.0000
  C   C39       1.0  0.85240  0.80228  0.44209  1.0000
  C   C40       1.0  0.14805  0.79987  0.06963  1.0000
  C   C41       1.0  0.67715  0.71841  0.11574  1.0000
  C   C42       1.0  0.32265  0.71864  0.39494  1.0000
  C   C43       1.0  0.17758  0.21991  0.10465  1.0000
  C   C44       1.0  0.81968  0.21365  0.38582  1.0000
  C   C45       1.0  0.32397  0.28221  0.38961  1.0000
  C   C46       1.0  0.67743  0.28310  0.10150  1.0000
  C   C47       1.0  0.82167  0.78519  0.40219  1.0000
  C   C48       1.0  0.17864  0.78308  0.10888  1.0000
  C   C49       1.0  0.67862  0.75457  0.17277  1.0000
  C   C50       1.0  0.32141  0.75458  0.34200  1.0000
  C   C51       1.0  0.18007  0.25606  0.16037  1.0000
  C   C52       1.0  0.81681  0.25109  0.36489  1.0000
  C   C53       1.0  0.32193  0.24660  0.32569  1.0000
  C   C54       1.0  0.67826  0.24642  0.14353  1.0000
  C   C55       1.0  0.81960  0.74854  0.35341  1.0000
  C   C56       1.0  0.18014  0.74735  0.16448  1.0000
  C   C57       1.0  0.70729  0.76819  0.22782  1.0000
  C   C58       1.0  0.29302  0.76776  0.28463  1.0000
  C   C59       1.0  0.20913  0.26873  0.21509  1.0000
  C   C60       1.0  0.78837  0.26484  0.31126  1.0000
  C   C61       1.0  0.29297  0.23400  0.26953  1.0000
  C   C62       1.0  0.70629  0.23203  0.19918  1.0000
  C   C63       1.0  0.79095  0.73517  0.29695  1.0000
  C   C64       1.0  0.20891  0.73430  0.21751  1.0000
  C   C65       1.0  0.73415  0.74554  0.22484  1.0000
  C   C66       1.0  0.26621  0.74485  0.28117  1.0000
  C   C67       1.0  0.23535  0.24514  0.21361  1.0000
  C   C68       1.0  0.76307  0.24106  0.27918  1.0000
  C   C69       1.0  0.26630  0.25703  0.27847  1.0000
  C   C70       1.0  0.73317  0.25454  0.21244  1.0000
  C   C71       1.0  0.76464  0.75843  0.29108  1.0000
  C   C72       1.0  0.23579  0.75717  0.21493  1.0000
  C   C73       1.0  0.70589  0.69867  0.10723  1.0000
  C   C74       1.0  0.29401  0.69861  0.39642  1.0000
  C   C75       1.0  0.20579  0.19922  0.09737  1.0000
  C   C76       1.0  0.79209  0.19252  0.36284  1.0000
  C   C77       1.0  0.29547  0.30236  0.40270  1.0000
  C   C78       1.0  0.70624  0.30266  0.10783  1.0000
  C   C79       1.0  0.79342  0.80571  0.40154  1.0000
  C   C80       1.0  0.20743  0.80296  0.09984  1.0000
  C   C81       1.0  0.62485  0.72252  0.98729  1.0000
  C   C82       1.0  0.37432  0.72312  0.53046  1.0000
  C   C83       1.0  0.12488  0.22453  0.97851  1.0000
  C   C84       1.0  0.87135  0.21911  0.51813  1.0000
  C   C85       1.0  0.37644  0.27722  0.51711  1.0000
  C   C86       1.0  0.62534  0.27978  0.97157  1.0000
  C   C87       1.0  0.87346  0.78136  0.53529  1.0000
  C   C88       1.0  0.12598  0.77782  0.98362  1.0000
  C   C89       1.0  0.49922  0.59590  0.24212  1.0000
  C   C90       1.0  0.00019  0.09573  0.25522  1.0000
  C   C91       1.0  0.50114  0.40579  0.25593  1.0000
  C   C92       1.0  0.00106  0.90554  0.24555  1.0000
  C   C93       1.0  0.49985  0.52024  0.24653  1.0000
  C   C94       1.0  0.00115  0.02001  0.25535  1.0000
  C   C95       1.0  0.50028  0.48151  0.24999  1.0000
  C   C96       1.0  0.00128  0.98126  0.25349  1.0000
  C   C97       1.0  0.52715  0.57798  0.68697  1.0000
  C   C98       1.0  0.47194  0.57802  0.80870  1.0000
  C   C99       1.0  0.02900  0.07408  0.69638  1.0000
  C   C100      1.0  0.97330  0.07441  0.81220  1.0000
  C   C101      1.0  0.47275  0.42410  0.81553  1.0000
  C   C102      1.0  0.52824  0.42376  0.69651  1.0000
  C   C103      1.0  0.97285  0.92050  0.80884  1.0000
  C   C104      1.0  0.02819  0.91986  0.68946  1.0000
  C   C105      1.0  0.52674  0.53951  0.67702  1.0000
  C   C106      1.0  0.47277  0.53975  0.82166  1.0000
  C   C107      1.0  0.02858  0.03566  0.68576  1.0000
  C   C108      1.0  0.97399  0.03611  0.82467  1.0000
  C   C109      1.0  0.47325  0.46251  0.82577  1.0000
  C   C110      1.0  0.52736  0.46207  0.68246  1.0000
  C   C111      1.0  0.97389  0.95885  0.82360  1.0000
  C   C112      1.0  0.02820  0.95826  0.68289  1.0000
  C   C113      1.0  0.55154  0.51895  0.58972  1.0000
  C   C114      1.0  0.44792  0.51987  0.90891  1.0000
  C   C115      1.0  0.05395  0.01516  0.60324  1.0000
  C   C116      1.0  0.94902  0.01620  0.91102  1.0000
  C   C117      1.0  0.44814  0.48296  0.91090  1.0000
  C   C118      1.0  0.55185  0.48202  0.59266  1.0000
  C   C119      1.0  0.94904  0.97926  0.91094  1.0000
  C   C120      1.0  0.05371  0.97818  0.60149  1.0000
  C   C121      1.0  0.63899  0.66772  0.61653  1.0000
  C   C122      1.0  0.35724  0.66293  0.87257  1.0000
  C   C123      1.0  0.14060  0.16452  0.63284  1.0000
  C   C124      1.0  0.86152  0.16441  0.87176  1.0000
  C   C125      1.0  0.35995  0.33563  0.88046  1.0000
  C   C126      1.0  0.64234  0.33713  0.63198  1.0000
  C   C127      1.0  0.85793  0.83587  0.89034  1.0000
  C   C128      1.0  0.13817  0.82792  0.61116  1.0000
  C   C129      1.0  0.64515  0.70264  0.56998  1.0000
  C   C130      1.0  0.34954  0.69731  0.92792  1.0000
  C   C131      1.0  0.14735  0.19845  0.57398  1.0000
  C   C132      1.0  0.85435  0.19888  0.92809  1.0000
  C   C133      1.0  0.35343  0.30093  0.92923  1.0000
  C   C134      1.0  0.64989  0.30276  0.57524  1.0000
  C   C135      1.0  0.85051  0.80194  0.94676  1.0000
  C   C136      1.0  0.14376  0.79277  0.56060  1.0000
  C   C137      1.0  0.67546  0.72015  0.61319  1.0000
  C   C138      1.0  0.31854  0.71314  0.88926  1.0000
  C   C139      1.0  0.17808  0.21587  0.61007  1.0000
  C   C140      1.0  0.82412  0.21619  0.88664  1.0000
  C   C141      1.0  0.32301  0.28360  0.88596  1.0000
  C   C142      1.0  0.68049  0.28575  0.61404  1.0000
  C   C143      1.0  0.81951  0.78536  0.90955  1.0000
  C   C144      1.0  0.17382  0.77545  0.60443  1.0000
  C   C145      1.0  0.67673  0.75617  0.67237  1.0000
  C   C146      1.0  0.31613  0.74935  0.84192  1.0000
  C   C147      1.0  0.18031  0.25282  0.65224  1.0000
  C   C148      1.0  0.82186  0.25361  0.86196  1.0000
  C   C149      1.0  0.32161  0.24755  0.82750  1.0000
  C   C150      1.0  0.68227  0.24894  0.65305  1.0000
  C   C151      1.0  0.81724  0.74889  0.85864  1.0000
  C   C152      1.0  0.17493  0.74012  0.66537  1.0000
  C   C153      1.0  0.70516  0.76969  0.73111  1.0000
  C   C154      1.0  0.28723  0.76187  0.78860  1.0000
  C   C155      1.0  0.20911  0.26669  0.70426  1.0000
  C   C156      1.0  0.79359  0.26777  0.80733  1.0000
  C   C157      1.0  0.29290  0.23391  0.77307  1.0000
  C   C158      1.0  0.71082  0.23502  0.70454  1.0000
  C   C159      1.0  0.78851  0.73591  0.80195  1.0000
  C   C160      1.0  0.20345  0.72736  0.72317  1.0000
  C   C161      1.0  0.73202  0.74704  0.72896  1.0000
  C   C162      1.0  0.26103  0.73812  0.78425  1.0000
  C   C163      1.0  0.23538  0.24345  0.71304  1.0000
  C   C164      1.0  0.76775  0.24445  0.77930  1.0000
  C   C165      1.0  0.26600  0.25653  0.77679  1.0000
  C   C166      1.0  0.73746  0.25796  0.71610  1.0000
  C   C167      1.0  0.76237  0.75947  0.79797  1.0000
  C   C168      1.0  0.23044  0.75006  0.71923  1.0000
  C   C169      1.0  0.70422  0.70051  0.60557  1.0000
  C   C170      1.0  0.29039  0.69214  0.89070  1.0000
  C   C171      1.0  0.20638  0.19545  0.61143  1.0000
  C   C172      1.0  0.79627  0.19554  0.86426  1.0000
  C   C173      1.0  0.29430  0.30338  0.89391  1.0000
  C   C174      1.0  0.70909  0.30587  0.61890  1.0000
  C   C175      1.0  0.79134  0.80603  0.91291  1.0000
  C   C176      1.0  0.20261  0.79522  0.59646  1.0000
  C   C177      1.0  0.62321  0.72415  0.48562  1.0000
  C   C178      1.0  0.37088  0.72007  0.01544  1.0000
  C   C179      1.0  0.12562  0.21898  0.48319  1.0000
  C   C180      1.0  0.87556  0.22017  0.02361  1.0000
  C   C181      1.0  0.37518  0.27968  0.01642  1.0000
  C   C182      1.0  0.62873  0.28083  0.48230  1.0000
  C   C183      1.0  0.87208  0.78012  0.03201  1.0000
  C   C184      1.0  0.12156  0.77138  0.47240  1.0000
  C   C185      1.0  0.49947  0.59609  0.74810  1.0000
  C   C186      1.0  0.00107  0.09225  0.75277  1.0000
  C   C187      1.0  0.50055  0.40590  0.75714  1.0000
  C   C188      1.0  0.00028  0.90209  0.74700  1.0000
  C   C189      1.0  0.49994  0.52033  0.75091  1.0000
  C   C190      1.0  0.00125  0.01662  0.75482  1.0000
  C   C191      1.0  0.50023  0.48158  0.75327  1.0000
  C   C192      1.0  0.00116  0.97787  0.75401  1.0000
  N   N1        1.0  0.73352  0.71134  0.16095  1.0000
  N   N2        1.0  0.26667  0.71085  0.34055  1.0000
  N   N3        1.0  0.23372  0.21092  0.15107  1.0000
  N   N4        1.0  0.76473  0.20530  0.30995  1.0000
  N   N5        1.0  0.26757  0.29069  0.34811  1.0000
  N   N6        1.0  0.73321  0.28933  0.16306  1.0000
  N   N7        1.0  0.76578  0.79317  0.34737  1.0000
  N   N8        1.0  0.23513  0.79092  0.15256  1.0000
  N   N9        1.0  0.60641  0.74245  0.41016  1.0000
  N   N10       1.0  0.38731  0.73939  0.09217  1.0000
  N   N11       1.0  0.10888  0.23633  0.40290  1.0000
  N   N12       1.0  0.89192  0.23826  0.10680  1.0000
  N   N13       1.0  0.39205  0.26201  0.09452  1.0000
  N   N14       1.0  0.61267  0.26227  0.39953  1.0000
  N   N15       1.0  0.88855  0.76157  0.10819  1.0000
  N   N16       1.0  0.10431  0.75349  0.39352  1.0000
  N   N17       1.0  0.73163  0.71307  0.66227  1.0000
  N   N18       1.0  0.26249  0.70382  0.83925  1.0000
  N   N19       1.0  0.23412  0.20837  0.66209  1.0000
  N   N20       1.0  0.76903  0.20874  0.81184  1.0000
  N   N21       1.0  0.26667  0.29078  0.83985  1.0000
  N   N22       1.0  0.73664  0.29290  0.66930  1.0000
  N   N23       1.0  0.76361  0.79394  0.85785  1.0000
  N   N24       1.0  0.23004  0.78348  0.65325  1.0000
  N   N25       1.0  0.60800  0.74044  0.91013  1.0000
  N   N26       1.0  0.39074  0.74160  0.61161  1.0000
  N   N27       1.0  0.10792  0.24244  0.90197  1.0000
  N   N28       1.0  0.88743  0.23790  0.59964  1.0000
  N   N29       1.0  0.39324  0.25894  0.59276  1.0000
  N   N30       1.0  0.60839  0.26181  0.89119  1.0000
  N   N31       1.0  0.88941  0.76366  0.61851  1.0000
  N   N32       1.0  0.10877  0.75933  0.90751  1.0000
  C  Sn1       1.0  0.58982  0.59709  0.26030  1.0000
  C   C193      1.0  0.55970  0.60254  0.19717  1.0000
  C  Sn2       1.0  0.55561  0.62796  0.07147  1.0000
  C  Sn3       1.0  0.58217  0.64834  0.00745  1.0000
  C   C194      1.0  0.61226  0.64287  0.07055  1.0000
  C  Sn4       1.0  0.61638  0.61746  0.19628  1.0000
  O  Te1       1.0  0.59336  0.57153  0.38595  1.0000
  O  Te2       1.0  0.52527  0.63294  0.01037  1.0000
  O  Te3       1.0  0.56869  0.67837  0.88170  1.0000
  O  Te4       1.0  0.64670  0.61247  0.25734  1.0000
  Mg  Mg1       1.0  0.52263  0.67538  0.83898  1.0000
  Mg  Mg2       1.0  0.63946  0.57450  0.42866  1.0000
  C  Sn5       1.0  0.42651  0.65712  0.40861  1.0000
  C   C195      1.0  0.39560  0.65045  0.35683  1.0000
  C  Sn6       1.0  0.38632  0.61551  0.30976  1.0000
  C  Sn7       1.0  0.40837  0.58663  0.31464  1.0000
  C   C196      1.0  0.43925  0.59331  0.36642  1.0000
  C  Sn8       1.0  0.44856  0.62824  0.41349  1.0000
  O  Te5       1.0  0.43527  0.69226  0.45512  1.0000
  O  Te6       1.0  0.35530  0.60950  0.25839  1.0000
  O  Te7       1.0  0.39958  0.55147  0.26808  1.0000
  O  Te8       1.0  0.47956  0.63425  0.46487  1.0000
  Mg  Mg3       1.0  0.35465  0.55690  0.20723  1.0000
  Mg  Mg4       1.0  0.48022  0.68684  0.51613  1.0000
  C  Sn9       1.0  0.07223  0.15816  0.09933  1.0000
  C   C197      1.0  0.10342  0.15232  0.14691  1.0000
  C  Sn10      1.0  0.11329  0.11772  0.18795  1.0000
  C  Sn11      1.0  0.09154  0.08833  0.18119  1.0000
  C   C198      1.0  0.06037  0.09416  0.13360  1.0000
  C  Sn12      1.0  0.05048  0.12876  0.09256  1.0000
  O  Te9       1.0  0.06288  0.19297  0.05882  1.0000
  O  Te10      1.0  0.14459  0.11256  0.23522  1.0000
  O  Te11      1.0  0.10092  0.05349  0.22175  1.0000
  O  Te12      1.0  0.01920  0.13393  0.04529  1.0000
  Mg  Mg5       1.0  0.14604  0.06011  0.27869  1.0000
  Mg  Mg6       1.0  0.01774  0.18636  0.00171  1.0000
  C  Sn13      1.0  0.88890  0.09631  0.32797  1.0000
  C   C199      1.0  0.88504  0.13084  0.40136  1.0000
  C  Sn14      1.0  0.91169  0.15153  0.44125  1.0000
  C  Sn15      1.0  0.94283  0.13743  0.40697  1.0000
  C   C200      1.0  0.94668  0.10292  0.33359  1.0000
  C  Sn16      1.0  0.92005  0.08221  0.29369  1.0000
  O  Te13      1.0  0.86193  0.07610  0.28914  1.0000
  O  Te14      1.0  0.90723  0.18597  0.51461  1.0000
  O  Te15      1.0  0.96982  0.15767  0.44587  1.0000
  O  Te16      1.0  0.92449  0.04779  0.22034  1.0000
  Mg  Mg7       1.0  0.95143  0.20313  0.54443  1.0000
  Mg  Mg8       1.0  0.88031  0.03061  0.19039  1.0000
  C  Sn17      1.0  0.42351  0.35415  0.50226  1.0000
  C   C201      1.0  0.39296  0.35947  0.44439  1.0000
  C  Sn18      1.0  0.38784  0.38557  0.32314  1.0000
  C  Sn19      1.0  0.41380  0.40677  0.25828  1.0000
  C   C202      1.0  0.44433  0.40144  0.31611  1.0000
  C  Sn20      1.0  0.44947  0.37536  0.43740  1.0000
  O  Te17      1.0  0.42807  0.32791  0.62352  1.0000
  O  Te18      1.0  0.35708  0.39040  0.26727  1.0000
  O  Te19      1.0  0.40922  0.43303  0.13692  1.0000
  O  Te20      1.0  0.48021  0.37051  0.49323  1.0000
  Mg  Mg9       1.0  0.36292  0.42952  0.10055  1.0000
  Mg  Mg10      1.0  0.47440  0.33140  0.65988  1.0000
  C  Sn21      1.0  0.59679  0.41581  0.17952  1.0000
  C   C203      1.0  0.56613  0.40917  0.12415  1.0000
  C  Sn22      1.0  0.55712  0.37432  0.07412  1.0000
  C  Sn23      1.0  0.57921  0.34549  0.07965  1.0000
  C   C204      1.0  0.60985  0.35213  0.13501  1.0000
  C  Sn24      1.0  0.61888  0.38698  0.18504  1.0000
  O  Te21      1.0  0.60527  0.45087  0.22894  1.0000
  O  Te22      1.0  0.52634  0.36835  0.01919  1.0000
  O  Te23      1.0  0.57070  0.31041  0.03016  1.0000
  O  Te24      1.0  0.64963  0.39296  0.23998  1.0000
  Mg  Mg11      1.0  0.51612  0.32033  0.96496  1.0000
  Mg  Mg12      1.0  0.64997  0.44542  0.29431  1.0000
  C  Sn25      1.0  0.92290  0.85470  0.49360  1.0000
  C   C205      1.0  0.89229  0.86073  0.43791  1.0000
  C  Sn26      1.0  0.88733  0.88703  0.31739  1.0000
  C  Sn27      1.0  0.91351  0.90771  0.25105  1.0000
  C   C206      1.0  0.94410  0.90167  0.30671  1.0000
  C  Sn28      1.0  0.94908  0.87539  0.42726  1.0000
  O  Te25      1.0  0.92731  0.82827  0.61418  1.0000
  O  Te26      1.0  0.85651  0.89257  0.26371  1.0000
  O  Te27      1.0  0.90908  0.93416  0.13038  1.0000
  O  Te28      1.0  0.97988  0.86983  0.48091  1.0000
  Mg  Mg13      1.0  0.86263  0.93168  0.09715  1.0000
  Mg  Mg14      1.0  0.97379  0.83072  0.64739  1.0000
  C  Sn29      1.0  0.07951  0.85295  0.00376  1.0000
  C   C207      1.0  0.10983  0.85913  0.06459  1.0000
  C  Sn30      1.0  0.11458  0.88661  0.18514  1.0000
  C  Sn31      1.0  0.08848  0.90837  0.24626  1.0000
  C   C208      1.0  0.05818  0.90219  0.18547  1.0000
  C  Sn32      1.0  0.05341  0.87471  0.06489  1.0000
  O  Te29      1.0  0.06541  0.82979  0.88327  1.0000
  O  Te30      1.0  0.14511  0.89228  0.24400  1.0000
  O  Te31      1.0  0.09270  0.93602  0.36685  1.0000
  O  Te32      1.0  0.02290  0.86903  0.00605  1.0000
  Mg  Mg15      1.0  0.13879  0.93322  0.40825  1.0000
  Mg  Mg16      1.0  0.01928  0.83256  0.84188  1.0000
  C  Sn33      1.0  0.61033  0.59952  0.64351  1.0000
  C   C209      1.0  0.61253  0.63403  0.57501  1.0000
  C  Sn34      1.0  0.58494  0.65390  0.55066  1.0000
  C  Sn35      1.0  0.55451  0.63899  0.59581  1.0000
  C   C210      1.0  0.55232  0.60450  0.66429  1.0000
  C  Sn36      1.0  0.57990  0.58460  0.68866  1.0000
  O  Te33      1.0  0.63823  0.58013  0.66675  1.0000
  O  Te34      1.0  0.58775  0.68835  0.48191  1.0000
  O  Te35      1.0  0.52660  0.65841  0.57251  1.0000
  O  Te36      1.0  0.57711  0.55019  0.75739  1.0000
  Mg  Mg17      1.0  0.54279  0.70421  0.47460  1.0000
  Mg  Mg18      1.0  0.62205  0.53430  0.76483  1.0000
  C  Sn37      1.0  0.43526  0.63461  0.98368  1.0000
  C   C211      1.0  0.43957  0.60097  0.90180  1.0000
  C  Sn38      1.0  0.41735  0.58807  0.78883  1.0000
  C  Sn39      1.0  0.39026  0.60924  0.75694  1.0000
  C   C212      1.0  0.38596  0.64286  0.83877  1.0000
  C  Sn40      1.0  0.40817  0.65578  0.95179  1.0000
  O  Te37      1.0  0.46769  0.64251  0.09611  1.0000
  O  Te38      1.0  0.42217  0.55435  0.70852  1.0000
  O  Te39      1.0  0.36773  0.59684  0.64440  1.0000
  O  Te40      1.0  0.41327  0.68501  0.03204  1.0000
  Mg  Mg19      1.0  0.38481  0.54921  0.56599  1.0000
  Mg  Mg20      1.0  0.45062  0.69018  0.17453  1.0000
  C  Sn41      1.0  0.07352  0.15353  0.60223  1.0000
  C   C213      1.0  0.10423  0.14793  0.65741  1.0000
  C  Sn42      1.0  0.11378  0.11347  0.70261  1.0000
  C  Sn43      1.0  0.09219  0.08399  0.69234  1.0000
  C   C214      1.0  0.06150  0.08959  0.63716  1.0000
  C  Sn44      1.0  0.05193  0.12405  0.59196  1.0000
  O  Te41      1.0  0.06449  0.18821  0.55768  1.0000
  O  Te42      1.0  0.14460  0.10855  0.75746  1.0000
  O  Te43      1.0  0.10125  0.04929  0.73695  1.0000
  O  Te44      1.0  0.02113  0.12898  0.53710  1.0000
  Mg  Mg21      1.0  0.14575  0.05622  0.80408  1.0000
  Mg  Mg22      1.0  0.01996  0.18129  0.49038  1.0000
  C  Sn45      1.0  0.88996  0.09624  0.84783  1.0000
  C   C215      1.0  0.88782  0.13157  0.91360  1.0000
  C  Sn46      1.0  0.91547  0.15169  0.93988  1.0000
  C  Sn47      1.0  0.94589  0.13617  0.89948  1.0000
  C   C216      1.0  0.94802  0.10086  0.83373  1.0000
  C  Sn48      1.0  0.92038  0.08072  0.80743  1.0000
  O  Te45      1.0  0.86200  0.07663  0.82258  1.0000
  O  Te46      1.0  0.92264  0.18249  0.00583  1.0000
  O  Te47      1.0  0.97386  0.15581  0.92479  1.0000
  O  Te48      1.0  0.92311  0.04548  0.74149  1.0000
  Mg  Mg23      1.0  0.96766  0.19835  0.01747  1.0000
  Mg  Mg24      1.0  0.87810  0.02959  0.72972  1.0000
  C  Sn49      1.0  0.40467  0.41585  0.83575  1.0000
  C   C217      1.0  0.43539  0.40935  0.88867  1.0000
  C  Sn50      1.0  0.44427  0.37463  0.93348  1.0000
  C  Sn51      1.0  0.42198  0.34579  0.92512  1.0000
  C   C218      1.0  0.39128  0.35229  0.87220  1.0000
  C  Sn52      1.0  0.38237  0.38701  0.82739  1.0000
  O  Te49      1.0  0.39631  0.45078  0.79154  1.0000
  O  Te50      1.0  0.47513  0.36880  0.98605  1.0000
  O  Te51      1.0  0.43036  0.31084  0.96939  1.0000
  O  Te52      1.0  0.35154  0.39284  0.77481  1.0000
  Mg  Mg25      1.0  0.48511  0.31199  0.03309  1.0000
  Mg  Mg26      1.0  0.35145  0.44516  0.72767  1.0000
  C  Sn53      1.0  0.60718  0.39565  0.75393  1.0000
  C   C219      1.0  0.61063  0.36121  0.67908  1.0000
  C  Sn54      1.0  0.58753  0.34749  0.57323  1.0000
  C  Sn55      1.0  0.56043  0.36865  0.54144  1.0000
  C   C220      1.0  0.55699  0.40307  0.61623  1.0000
  C  Sn56      1.0  0.58007  0.41681  0.72213  1.0000
  O  Te53      1.0  0.63056  0.40882  0.85930  1.0000
  O  Te54      1.0  0.59150  0.31298  0.49989  1.0000
  O  Te55      1.0  0.53704  0.35545  0.43596  1.0000
  O  Te56      1.0  0.57612  0.45130  0.79542  1.0000
  Mg  Mg27      1.0  0.55314  0.30692  0.36547  1.0000
  Mg  Mg28      1.0  0.61447  0.45740  0.92978  1.0000
  C  Sn57      1.0  0.89341  0.89192  0.75601  1.0000
  C   C221      1.0  0.88959  0.85880  0.83676  1.0000
  C  Sn58      1.0  0.91285  0.84649  0.94221  1.0000
  C  Sn59      1.0  0.94050  0.86775  0.96757  1.0000
  C   C222      1.0  0.94430  0.90086  0.88688  1.0000
  C  Sn60      1.0  0.92106  0.91318  0.78138  1.0000
  O  Te57      1.0  0.86985  0.90369  0.65115  1.0000
  O  Te58      1.0  0.91842  0.80881  0.02152  1.0000
  O  Te59      1.0  0.97397  0.85149  0.07254  1.0000
  O  Te60      1.0  0.92539  0.94638  0.70212  1.0000
  Mg  Mg29      1.0  0.95721  0.80439  0.15260  1.0000
  Mg  Mg30      1.0  0.88661  0.95083  0.57109  1.0000
  C  Sn61      1.0  0.07721  0.84973  0.48952  1.0000
  C   C223      1.0  0.10750  0.85418  0.55340  1.0000
  C  Sn62      1.0  0.11259  0.88005  0.68103  1.0000
  C  Sn63      1.0  0.08687  0.90193  0.74627  1.0000
  C   C224      1.0  0.05660  0.89747  0.68243  1.0000
  C  Sn64      1.0  0.05149  0.87160  0.55477  1.0000
  O  Te61      1.0  0.07266  0.82369  0.36193  1.0000
  O  Te62      1.0  0.14308  0.88401  0.74282  1.0000
  O  Te63      1.0  0.09144  0.92798  0.87395  1.0000
  O  Te64      1.0  0.02102  0.86763  0.49300  1.0000
  Mg  Mg31      1.0  0.13732  0.92318  0.91696  1.0000
  Mg  Mg32      1.0  0.02674  0.82847  0.31894  1.0000
