data_image0
_chemical_formula_structural       H120C240N32SnCSn2CSnTe4Mg2SnCSn2CSnTe4Mg2SnCSn2CSnTe4Mg2SnCSn2CSnTe4Mg2SnCSn2CSnTe4Mg2SnCSn2CSnTe4Mg2SnCSn2CSnTe4Mg2SnCSn2CSnTe4Mg2
_chemical_formula_sum              "H120 C256 N32 Sn32 Te32 Mg16"
_cell_length_a       41.9087
_cell_length_b       37.0079
_cell_length_c       7.86823
_cell_angle_alpha    91.2163
_cell_angle_beta     86.9693
_cell_angle_gamma    90.2375

_symmetry_space_group_name_H-M    'P1'
_space_group_IT_number       1

loop_
  _space_group_symop_operation_xyz
  'x, y, z'

loop_
  _atom_site_type_symbol
  _atom_site_label
  _atom_site_symmetry_multiplicity
  _atom_site_fract_x
  _atom_site_fract_y
  _atom_site_fract_z
  _atom_site_occupancy
  H   H1        1.0  0.57185  0.53341  0.02777  1.0000
  H   H2        1.0  0.42766  0.53426  0.46345  1.0000
  H   H3        1.0  0.07278  0.03393  0.03567  1.0000
  H   H4        1.0  0.92956  0.03377  0.47823  1.0000
  H   H5        1.0  0.42852  0.46846  0.47157  1.0000
  H   H6        1.0  0.57263  0.46744  0.03326  1.0000
  H   H7        1.0  0.92989  0.96725  0.47603  1.0000
  H   H8        1.0  0.07296  0.96769  0.03182  1.0000
  H   H9        1.0  0.53392  0.64031  0.00450  1.0000
  H   H10       1.0  0.46608  0.64200  0.48231  1.0000
  H   H11       1.0  0.03252  0.14198  0.02790  1.0000
  H   H12       1.0  0.96426  0.14144  0.49178  1.0000
  H   H13       1.0  0.53490  0.36063  0.01383  1.0000
  H   H14       1.0  0.58132  0.67947  0.97656  1.0000
  H   H15       1.0  0.41922  0.68118  0.51785  1.0000
  H   H16       1.0  0.07873  0.18211  0.99313  1.0000
  H   H17       1.0  0.91636  0.17937  0.51274  1.0000
  H   H18       1.0  0.58203  0.32164  0.98018  1.0000
  H   H19       1.0  0.63429  0.60270  0.25353  1.0000
  H   H20       1.0  0.36406  0.60195  0.24915  1.0000
  H   H21       1.0  0.13573  0.10449  0.24393  1.0000
  H   H22       1.0  0.86562  0.09798  0.23251  1.0000
  H   H23       1.0  0.63600  0.40040  0.25931  1.0000
  H   H24       1.0  0.58645  0.56416  0.28532  1.0000
  H   H25       1.0  0.41126  0.56273  0.21402  1.0000
  H   H26       1.0  0.08919  0.06461  0.27893  1.0000
  H   H27       1.0  0.91374  0.05998  0.21374  1.0000
  H   H28       1.0  0.58855  0.43937  0.29172  1.0000
  H   H29       1.0  0.65913  0.65383  0.18957  1.0000
  H   H30       1.0  0.34052  0.65455  0.30991  1.0000
  H   H31       1.0  0.15902  0.15661  0.18551  1.0000
  H   H32       1.0  0.84004  0.14995  0.29011  1.0000
  H   H33       1.0  0.34198  0.34657  0.32123  1.0000
  H   H34       1.0  0.66025  0.34787  0.19092  1.0000
  H   H35       1.0  0.84114  0.84834  0.31316  1.0000
  H   H36       1.0  0.16077  0.84777  0.18906  1.0000
  H   H37       1.0  0.65712  0.77109  0.17868  1.0000
  H   H38       1.0  0.34289  0.77126  0.34019  1.0000
  H   H39       1.0  0.15904  0.27332  0.16509  1.0000
  H   H40       1.0  0.83707  0.26882  0.38682  1.0000
  H   H41       1.0  0.34314  0.22963  0.31560  1.0000
  H   H42       1.0  0.65667  0.23008  0.13834  1.0000
  H   H43       1.0  0.84057  0.73125  0.35384  1.0000
  H   H44       1.0  0.15859  0.73076  0.17130  1.0000
  H   H45       1.0  0.70955  0.79571  0.27684  1.0000
  H   H46       1.0  0.29109  0.79515  0.23905  1.0000
  H   H47       1.0  0.21220  0.29628  0.26216  1.0000
  H   H48       1.0  0.78522  0.29352  0.29057  1.0000
  H   H49       1.0  0.29046  0.20694  0.21537  1.0000
  H   H50       1.0  0.70782  0.20402  0.23667  1.0000
  H   H51       1.0  0.78853  0.70732  0.25284  1.0000
  H   H52       1.0  0.21124  0.70712  0.26517  1.0000
  H   H53       1.0  0.70642  0.67138  0.05173  1.0000
  H   H54       1.0  0.29332  0.67143  0.44756  1.0000
  H   H55       1.0  0.20553  0.17188  0.04289  1.0000
  H   H56       1.0  0.79225  0.16380  0.39102  1.0000
  H   H57       1.0  0.29550  0.32917  0.46324  1.0000
  H   H58       1.0  0.70744  0.33042  0.06392  1.0000
  H   H59       1.0  0.79335  0.83366  0.44897  1.0000
  H   H60       1.0  0.20789  0.82984  0.04531  1.0000
  H   H61       1.0  0.49910  0.62529  0.24076  1.0000
  H   H62       1.0  0.99959  0.12513  0.25453  1.0000
  H   H63       1.0  0.50153  0.37638  0.25723  1.0000
  H   H64       1.0  0.00097  0.87613  0.24213  1.0000
  H   H65       1.0  0.57016  0.53315  0.51648  1.0000
  H   H66       1.0  0.42884  0.53463  0.97802  1.0000
  H   H67       1.0  0.07356  0.02937  0.53776  1.0000
  H   H68       1.0  0.92997  0.03089  0.98084  1.0000
  H   H69       1.0  0.42925  0.46871  0.98192  1.0000
  H   H70       1.0  0.57065  0.46722  0.52150  1.0000
  H   H71       1.0  0.93014  0.96478  0.98072  1.0000
  H   H72       1.0  0.07303  0.96338  0.53447  1.0000
  H   H73       1.0  0.53184  0.64222  0.52151  1.0000
  H   H74       1.0  0.96620  0.85634  0.97351  1.0000
  H   H75       1.0  0.03276  0.85670  0.50100  1.0000
  H   H76       1.0  0.57858  0.68212  0.49191  1.0000
  H   H77       1.0  0.91822  0.81892  0.00878  1.0000
  H   H78       1.0  0.07854  0.81609  0.46669  1.0000
  H   H79       1.0  0.63511  0.60201  0.72797  1.0000
  H   H80       1.0  0.86448  0.90012  0.76210  1.0000
  H   H81       1.0  0.13459  0.89237  0.74907  1.0000
  H   H82       1.0  0.58784  0.56266  0.76108  1.0000
  H   H83       1.0  0.91307  0.93707  0.72434  1.0000
  H   H84       1.0  0.08830  0.93276  0.78414  1.0000
  H   H85       1.0  0.65823  0.65513  0.68194  1.0000
  H   H86       1.0  0.33860  0.64921  0.80378  1.0000
  H   H87       1.0  0.15953  0.15280  0.70373  1.0000
  H   H88       1.0  0.84312  0.15171  0.79775  1.0000
  H   H89       1.0  0.34088  0.34809  0.81327  1.0000
  H   H90       1.0  0.66093  0.35058  0.70234  1.0000
  H   H91       1.0  0.83889  0.84876  0.82455  1.0000
  H   H92       1.0  0.15759  0.84022  0.67922  1.0000
  H   H93       1.0  0.65525  0.77270  0.67741  1.0000
  H   H94       1.0  0.33714  0.76679  0.84187  1.0000
  H   H95       1.0  0.15924  0.26986  0.64931  1.0000
  H   H96       1.0  0.84245  0.27098  0.88188  1.0000
  H   H97       1.0  0.34318  0.23117  0.81947  1.0000
  H   H98       1.0  0.66113  0.23184  0.64768  1.0000
  H   H99       1.0  0.83822  0.73161  0.85879  1.0000
  H   H100      1.0  0.15331  0.72367  0.67257  1.0000
  H   H101      1.0  0.70708  0.79702  0.78317  1.0000
  H   H102      1.0  0.28430  0.78938  0.74671  1.0000
  H   H103      1.0  0.21181  0.29494  0.74158  1.0000
  H   H104      1.0  0.79095  0.29641  0.78307  1.0000
  H   H105      1.0  0.29069  0.20638  0.72405  1.0000
  H   H106      1.0  0.71305  0.20694  0.73973  1.0000
  H   H107      1.0  0.78569  0.70822  0.75633  1.0000
  H   H108      1.0  0.20547  0.70054  0.77524  1.0000
  H   H109      1.0  0.70496  0.67333  0.54907  1.0000
  H   H110      1.0  0.29056  0.66461  0.93771  1.0000
  H   H111      1.0  0.20637  0.16728  0.56729  1.0000
  H   H112      1.0  0.79607  0.16681  0.89272  1.0000
  H   H113      1.0  0.29384  0.33073  0.94866  1.0000
  H   H114      1.0  0.70961  0.33379  0.57703  1.0000
  H   H115      1.0  0.79144  0.83365  0.96436  1.0000
  H   H116      1.0  0.20325  0.82180  0.53893  1.0000
  H   H117      1.0  0.49936  0.62550  0.74844  1.0000
  H   H118      1.0  0.00100  0.12165  0.75145  1.0000
  H   H119      1.0  0.50048  0.37650  0.75883  1.0000
  H   H120      1.0  0.99997  0.87268  0.74350  1.0000
  C   C1        1.0  0.52724  0.57789  0.18596  1.0000
  C   C2        1.0  0.47154  0.57790  0.30150  1.0000
  C   C3        1.0  0.02831  0.07802  0.19733  1.0000
  C   C4        1.0  0.97262  0.07733  0.31299  1.0000
  C   C5        1.0  0.47313  0.42372  0.31312  1.0000
  C   C6        1.0  0.52870  0.42399  0.19649  1.0000
  C   C7        1.0  0.97330  0.92355  0.30585  1.0000
  C   C8        1.0  0.02901  0.92358  0.18992  1.0000
  C   C9        1.0  0.52705  0.53945  0.17706  1.0000
  C   C10       1.0  0.47233  0.53960  0.31376  1.0000
  C   C11       1.0  0.02828  0.03951  0.18687  1.0000
  C   C12       1.0  0.97370  0.03908  0.32486  1.0000
  C   C13       1.0  0.47322  0.46221  0.32076  1.0000
  C   C14       1.0  0.52786  0.46222  0.18314  1.0000
  C   C15       1.0  0.97399  0.96192  0.32115  1.0000
  C   C16       1.0  0.02855  0.96201  0.18276  1.0000
  C   C17       1.0  0.55265  0.51906  0.09592  1.0000
  C   C18       1.0  0.44725  0.51957  0.39832  1.0000
  C   C19       1.0  0.05361  0.01928  0.10247  1.0000
  C   C20       1.0  0.94866  0.01896  0.40923  1.0000
  C   C21       1.0  0.44769  0.48264  0.40217  1.0000
  C   C22       1.0  0.55306  0.48214  0.09880  1.0000
  C   C23       1.0  0.94883  0.98201  0.40776  1.0000
  C   C24       1.0  0.05373  0.98230  0.10052  1.0000
  C   C25       1.0  0.55640  0.59934  0.14817  1.0000
  C   C26       1.0  0.44252  0.59940  0.34360  1.0000
  C   C27       1.0  0.05702  0.10004  0.15639  1.0000
  C   C28       1.0  0.94293  0.09805  0.34845  1.0000
  C   C29       1.0  0.55795  0.40276  0.15730  1.0000
  C   C30       1.0  0.55584  0.63220  0.06118  1.0000
  C   C31       1.0  0.44376  0.63309  0.43009  1.0000
  C   C32       1.0  0.05518  0.13362  0.07587  1.0000
  C   C33       1.0  0.94268  0.13192  0.43366  1.0000
  C   C34       1.0  0.55702  0.36929  0.06906  1.0000
  C   C35       1.0  0.58273  0.65425  0.04385  1.0000
  C   C36       1.0  0.41710  0.65530  0.45152  1.0000
  C   C37       1.0  0.08151  0.15643  0.05523  1.0000
  C   C38       1.0  0.91544  0.15334  0.44679  1.0000
  C   C39       1.0  0.58376  0.34725  0.04910  1.0000
  C   C40       1.0  0.61161  0.64432  0.11495  1.0000
  C   C41       1.0  0.38774  0.64478  0.38492  1.0000
  C   C42       1.0  0.11132  0.14661  0.11647  1.0000
  C   C43       1.0  0.88702  0.14188  0.37275  1.0000
  C   C44       1.0  0.61282  0.35772  0.11911  1.0000
  C   C45       1.0  0.61236  0.61075  0.19679  1.0000
  C   C46       1.0  0.38633  0.61048  0.30326  1.0000
  C   C47       1.0  0.11325  0.11253  0.19301  1.0000
  C   C48       1.0  0.88710  0.10737  0.29203  1.0000
  C   C49       1.0  0.61393  0.39178  0.20337  1.0000
  C   C50       1.0  0.58550  0.58890  0.21373  1.0000
  C   C51       1.0  0.41290  0.58829  0.28376  1.0000
  C   C52       1.0  0.08699  0.08981  0.21207  1.0000
  C   C53       1.0  0.91421  0.08592  0.28119  1.0000
  C   C54       1.0  0.58724  0.41385  0.22138  1.0000
  C   C55       1.0  0.64012  0.66639  0.12200  1.0000
  C   C56       1.0  0.35945  0.66694  0.38149  1.0000
  C   C57       1.0  0.13981  0.16884  0.11826  1.0000
  C   C58       1.0  0.85821  0.16302  0.36472  1.0000
  C   C59       1.0  0.36123  0.33383  0.38586  1.0000
  C   C60       1.0  0.64110  0.33554  0.12083  1.0000
  C   C61       1.0  0.85985  0.83609  0.38389  1.0000
  C   C62       1.0  0.14154  0.83474  0.12212  1.0000
  C   C63       1.0  0.64669  0.70109  0.07314  1.0000
  C   C64       1.0  0.35289  0.70154  0.43775  1.0000
  C   C65       1.0  0.14668  0.20315  0.06474  1.0000
  C   C66       1.0  0.85036  0.19711  0.42433  1.0000
  C   C67       1.0  0.35467  0.29901  0.43288  1.0000
  C   C68       1.0  0.64733  0.30096  0.06273  1.0000
  C   C69       1.0  0.85240  0.80228  0.44209  1.0000
  C   C70       1.0  0.14805  0.79987  0.06963  1.0000
  C   C71       1.0  0.67715  0.71841  0.11574  1.0000
  C   C72       1.0  0.32265  0.71864  0.39494  1.0000
  C   C73       1.0  0.17758  0.21991  0.10465  1.0000
  C   C74       1.0  0.81968  0.21365  0.38582  1.0000
  C   C75       1.0  0.32397  0.28221  0.38961  1.0000
  C   C76       1.0  0.67743  0.28310  0.10150  1.0000
  C   C77       1.0  0.82167  0.78519  0.40219  1.0000
  C   C78       1.0  0.17864  0.78308  0.10888  1.0000
  C   C79       1.0  0.67862  0.75457  0.17277  1.0000
  C   C80       1.0  0.32141  0.75458  0.34200  1.0000
  C   C81       1.0  0.18007  0.25606  0.16037  1.0000
  C   C82       1.0  0.81681  0.25109  0.36489  1.0000
  C   C83       1.0  0.32193  0.24660  0.32569  1.0000
  C   C84       1.0  0.67826  0.24642  0.14353  1.0000
  C   C85       1.0  0.81960  0.74854  0.35341  1.0000
  C   C86       1.0  0.18014  0.74735  0.16448  1.0000
  C   C87       1.0  0.70729  0.76819  0.22782  1.0000
  C   C88       1.0  0.29302  0.76776  0.28463  1.0000
  C   C89       1.0  0.20913  0.26873  0.21509  1.0000
  C   C90       1.0  0.78837  0.26484  0.31126  1.0000
  C   C91       1.0  0.29297  0.23400  0.26953  1.0000
  C   C92       1.0  0.70629  0.23203  0.19918  1.0000
  C   C93       1.0  0.79095  0.73517  0.29695  1.0000
  C   C94       1.0  0.20891  0.73430  0.21751  1.0000
  C   C95       1.0  0.73415  0.74554  0.22484  1.0000
  C   C96       1.0  0.26621  0.74485  0.28117  1.0000
  C   C97       1.0  0.23535  0.24514  0.21361  1.0000
  C   C98       1.0  0.76307  0.24106  0.27918  1.0000
  C   C99       1.0  0.26630  0.25703  0.27847  1.0000
  C   C100      1.0  0.73317  0.25454  0.21244  1.0000
  C   C101      1.0  0.76464  0.75843  0.29108  1.0000
  C   C102      1.0  0.23579  0.75717  0.21493  1.0000
  C   C103      1.0  0.70589  0.69867  0.10723  1.0000
  C   C104      1.0  0.29401  0.69861  0.39642  1.0000
  C   C105      1.0  0.20579  0.19922  0.09737  1.0000
  C   C106      1.0  0.79209  0.19252  0.36284  1.0000
  C   C107      1.0  0.29547  0.30236  0.40270  1.0000
  C   C108      1.0  0.70624  0.30266  0.10783  1.0000
  C   C109      1.0  0.79342  0.80571  0.40154  1.0000
  C   C110      1.0  0.20743  0.80296  0.09984  1.0000
  C   C111      1.0  0.62485  0.72252  0.98729  1.0000
  C   C112      1.0  0.37432  0.72312  0.53046  1.0000
  C   C113      1.0  0.12488  0.22453  0.97851  1.0000
  C   C114      1.0  0.87135  0.21911  0.51813  1.0000
  C   C115      1.0  0.37644  0.27722  0.51711  1.0000
  C   C116      1.0  0.62534  0.27978  0.97157  1.0000
  C   C117      1.0  0.87346  0.78136  0.53529  1.0000
  C   C118      1.0  0.12598  0.77782  0.98362  1.0000
  C   C119      1.0  0.49922  0.59590  0.24212  1.0000
  C   C120      1.0  0.00019  0.09573  0.25522  1.0000
  C   C121      1.0  0.50114  0.40579  0.25593  1.0000
  C   C122      1.0  0.00106  0.90554  0.24555  1.0000
  C   C123      1.0  0.49985  0.52024  0.24653  1.0000
  C   C124      1.0  0.00115  0.02001  0.25535  1.0000
  C   C125      1.0  0.50028  0.48151  0.24999  1.0000
  C   C126      1.0  0.00128  0.98126  0.25349  1.0000
  C   C127      1.0  0.52715  0.57798  0.68697  1.0000
  C   C128      1.0  0.47194  0.57802  0.80870  1.0000
  C   C129      1.0  0.02900  0.07408  0.69638  1.0000
  C   C130      1.0  0.97330  0.07441  0.81220  1.0000
  C   C131      1.0  0.47275  0.42410  0.81553  1.0000
  C   C132      1.0  0.52824  0.42376  0.69651  1.0000
  C   C133      1.0  0.97285  0.92050  0.80884  1.0000
  C   C134      1.0  0.02819  0.91986  0.68946  1.0000
  C   C135      1.0  0.52674  0.53951  0.67702  1.0000
  C   C136      1.0  0.47277  0.53975  0.82166  1.0000
  C   C137      1.0  0.02858  0.03566  0.68576  1.0000
  C   C138      1.0  0.97399  0.03611  0.82467  1.0000
  C   C139      1.0  0.47325  0.46251  0.82577  1.0000
  C   C140      1.0  0.52736  0.46207  0.68246  1.0000
  C   C141      1.0  0.97389  0.95885  0.82360  1.0000
  C   C142      1.0  0.02820  0.95826  0.68289  1.0000
  C   C143      1.0  0.55154  0.51895  0.58972  1.0000
  C   C144      1.0  0.44792  0.51987  0.90891  1.0000
  C   C145      1.0  0.05395  0.01516  0.60324  1.0000
  C   C146      1.0  0.94902  0.01620  0.91102  1.0000
  C   C147      1.0  0.44814  0.48296  0.91090  1.0000
  C   C148      1.0  0.55185  0.48202  0.59266  1.0000
  C   C149      1.0  0.94904  0.97926  0.91094  1.0000
  C   C150      1.0  0.05371  0.97818  0.60149  1.0000
  C   C151      1.0  0.55605  0.59947  0.64503  1.0000
  C   C152      1.0  0.94340  0.89973  0.84732  1.0000
  C   C153      1.0  0.05684  0.89788  0.64595  1.0000
  C   C154      1.0  0.55446  0.63344  0.56820  1.0000
  C   C155      1.0  0.94390  0.86602  0.92667  1.0000
  C   C156      1.0  0.05507  0.86463  0.55617  1.0000
  C   C157      1.0  0.58100  0.65597  0.55012  1.0000
  C   C158      1.0  0.91658  0.84487  0.94803  1.0000
  C   C159      1.0  0.08117  0.84160  0.53556  1.0000
  C   C160      1.0  0.61070  0.64535  0.60966  1.0000
  C   C161      1.0  0.88720  0.85664  0.88900  1.0000
  C   C162      1.0  0.11047  0.85091  0.60628  1.0000
  C   C163      1.0  0.61252  0.61069  0.68031  1.0000
  C   C164      1.0  0.88667  0.89071  0.81158  1.0000
  C   C165      1.0  0.11246  0.88483  0.69094  1.0000
  C   C166      1.0  0.58599  0.58833  0.69782  1.0000
  C   C167      1.0  0.91400  0.91171  0.79108  1.0000
  C   C168      1.0  0.08640  0.90776  0.71029  1.0000
  C   C169      1.0  0.63899  0.66772  0.61653  1.0000
  C   C170      1.0  0.35724  0.66293  0.87257  1.0000
  C   C171      1.0  0.14060  0.16452  0.63284  1.0000
  C   C172      1.0  0.86152  0.16441  0.87176  1.0000
  C   C173      1.0  0.35995  0.33563  0.88046  1.0000
  C   C174      1.0  0.64234  0.33713  0.63198  1.0000
  C   C175      1.0  0.85793  0.83587  0.89034  1.0000
  C   C176      1.0  0.13817  0.82792  0.61116  1.0000
  C   C177      1.0  0.64515  0.70264  0.56998  1.0000
  C   C178      1.0  0.34954  0.69731  0.92792  1.0000
  C   C179      1.0  0.14735  0.19845  0.57398  1.0000
  C   C180      1.0  0.85435  0.19888  0.92809  1.0000
  C   C181      1.0  0.35343  0.30093  0.92923  1.0000
  C   C182      1.0  0.64989  0.30276  0.57524  1.0000
  C   C183      1.0  0.85051  0.80194  0.94676  1.0000
  C   C184      1.0  0.14376  0.79277  0.56060  1.0000
  C   C185      1.0  0.67546  0.72015  0.61319  1.0000
  C   C186      1.0  0.31854  0.71314  0.88926  1.0000
  C   C187      1.0  0.17808  0.21587  0.61007  1.0000
  C   C188      1.0  0.82412  0.21619  0.88664  1.0000
  C   C189      1.0  0.32301  0.28360  0.88596  1.0000
  C   C190      1.0  0.68049  0.28575  0.61404  1.0000
  C   C191      1.0  0.81951  0.78536  0.90955  1.0000
  C   C192      1.0  0.17382  0.77545  0.60443  1.0000
  C   C193      1.0  0.67673  0.75617  0.67237  1.0000
  C   C194      1.0  0.31613  0.74935  0.84192  1.0000
  C   C195      1.0  0.18031  0.25282  0.65224  1.0000
  C   C196      1.0  0.82186  0.25361  0.86196  1.0000
  C   C197      1.0  0.32161  0.24755  0.82750  1.0000
  C   C198      1.0  0.68227  0.24894  0.65305  1.0000
  C   C199      1.0  0.81724  0.74889  0.85864  1.0000
  C   C200      1.0  0.17493  0.74012  0.66537  1.0000
  C   C201      1.0  0.70516  0.76969  0.73111  1.0000
  C   C202      1.0  0.28723  0.76187  0.78860  1.0000
  C   C203      1.0  0.20911  0.26669  0.70426  1.0000
  C   C204      1.0  0.79359  0.26777  0.80733  1.0000
  C   C205      1.0  0.29290  0.23391  0.77307  1.0000
  C   C206      1.0  0.71082  0.23502  0.70454  1.0000
  C   C207      1.0  0.78851  0.73591  0.80195  1.0000
  C   C208      1.0  0.20345  0.72736  0.72317  1.0000
  C   C209      1.0  0.73202  0.74704  0.72896  1.0000
  C   C210      1.0  0.26103  0.73812  0.78425  1.0000
  C   C211      1.0  0.23538  0.24345  0.71304  1.0000
  C   C212      1.0  0.76775  0.24445  0.77930  1.0000
  C   C213      1.0  0.26600  0.25653  0.77679  1.0000
  C   C214      1.0  0.73746  0.25796  0.71610  1.0000
  C   C215      1.0  0.76237  0.75947  0.79797  1.0000
  C   C216      1.0  0.23044  0.75006  0.71923  1.0000
  C   C217      1.0  0.70422  0.70051  0.60557  1.0000
  C   C218      1.0  0.29039  0.69214  0.89070  1.0000
  C   C219      1.0  0.20638  0.19545  0.61143  1.0000
  C   C220      1.0  0.79627  0.19554  0.86426  1.0000
  C   C221      1.0  0.29430  0.30338  0.89391  1.0000
  C   C222      1.0  0.70909  0.30587  0.61890  1.0000
  C   C223      1.0  0.79134  0.80603  0.91291  1.0000
  C   C224      1.0  0.20261  0.79522  0.59646  1.0000
  C   C225      1.0  0.62321  0.72415  0.48562  1.0000
  C   C226      1.0  0.37088  0.72007  0.01544  1.0000
  C   C227      1.0  0.12562  0.21898  0.48319  1.0000
  C   C228      1.0  0.87556  0.22017  0.02361  1.0000
  C   C229      1.0  0.37518  0.27968  0.01642  1.0000
  C   C230      1.0  0.62873  0.28083  0.48230  1.0000
  C   C231      1.0  0.87208  0.78012  0.03201  1.0000
  C   C232      1.0  0.12156  0.77138  0.47240  1.0000
  C   C233      1.0  0.49947  0.59609  0.74810  1.0000
  C   C234      1.0  0.00107  0.09225  0.75277  1.0000
  C   C235      1.0  0.50055  0.40590  0.75714  1.0000
  C   C236      1.0  0.00028  0.90209  0.74700  1.0000
  C   C237      1.0  0.49994  0.52033  0.75091  1.0000
  C   C238      1.0  0.00125  0.01662  0.75482  1.0000
  C   C239      1.0  0.50023  0.48158  0.75327  1.0000
  C   C240      1.0  0.00116  0.97787  0.75401  1.0000
  N   N1        1.0  0.73352  0.71134  0.16095  1.0000
  N   N2        1.0  0.26667  0.71085  0.34055  1.0000
  N   N3        1.0  0.23372  0.21092  0.15107  1.0000
  N   N4        1.0  0.76473  0.20530  0.30995  1.0000
  N   N5        1.0  0.26757  0.29069  0.34811  1.0000
  N   N6        1.0  0.73321  0.28933  0.16306  1.0000
  N   N7        1.0  0.76578  0.79317  0.34737  1.0000
  N   N8        1.0  0.23513  0.79092  0.15256  1.0000
  N   N9        1.0  0.60641  0.74245  0.41016  1.0000
  N   N10       1.0  0.38731  0.73939  0.09217  1.0000
  N   N11       1.0  0.10888  0.23633  0.40290  1.0000
  N   N12       1.0  0.89192  0.23826  0.10680  1.0000
  N   N13       1.0  0.39205  0.26201  0.09452  1.0000
  N   N14       1.0  0.61267  0.26227  0.39953  1.0000
  N   N15       1.0  0.88855  0.76157  0.10819  1.0000
  N   N16       1.0  0.10431  0.75349  0.39352  1.0000
  N   N17       1.0  0.73163  0.71307  0.66227  1.0000
  N   N18       1.0  0.26249  0.70382  0.83925  1.0000
  N   N19       1.0  0.23412  0.20837  0.66209  1.0000
  N   N20       1.0  0.76903  0.20874  0.81184  1.0000
  N   N21       1.0  0.26667  0.29078  0.83985  1.0000
  N   N22       1.0  0.73664  0.29290  0.66930  1.0000
  N   N23       1.0  0.76361  0.79394  0.85785  1.0000
  N   N24       1.0  0.23004  0.78348  0.65325  1.0000
  N   N25       1.0  0.60800  0.74044  0.91013  1.0000
  N   N26       1.0  0.39074  0.74160  0.61161  1.0000
  N   N27       1.0  0.10792  0.24244  0.90197  1.0000
  N   N28       1.0  0.88743  0.23790  0.59964  1.0000
  N   N29       1.0  0.39324  0.25894  0.59276  1.0000
  N   N30       1.0  0.60839  0.26181  0.89119  1.0000
  N   N31       1.0  0.88941  0.76366  0.61851  1.0000
  N   N32       1.0  0.10877  0.75933  0.90751  1.0000
  C  Sn1       1.0  0.55921  0.35697  0.61842  1.0000
  C   C241      1.0  0.55608  0.39200  0.68693  1.0000
  C  Sn2       1.0  0.58313  0.41311  0.71355  1.0000
  C  Sn3       1.0  0.61397  0.39893  0.67070  1.0000
  C   C242      1.0  0.61710  0.36392  0.60222  1.0000
  C  Sn4       1.0  0.59005  0.34278  0.57558  1.0000
  O  Te1       1.0  0.53183  0.33634  0.59289  1.0000
  O  Te2       1.0  0.57940  0.44806  0.78225  1.0000
  O  Te3       1.0  0.64136  0.41959  0.69630  1.0000
  O  Te4       1.0  0.59377  0.30786  0.50690  1.0000
  Mg  Mg1       1.0  0.62394  0.46566  0.79317  1.0000
  Mg  Mg2       1.0  0.54926  0.29024  0.49584  1.0000
  C  Sn5       1.0  0.07352  0.15353  0.60223  1.0000
  C   C243      1.0  0.10423  0.14793  0.65741  1.0000
  C  Sn6       1.0  0.11378  0.11347  0.70261  1.0000
  C  Sn7       1.0  0.09219  0.08399  0.69234  1.0000
  C   C244      1.0  0.06150  0.08959  0.63716  1.0000
  C  Sn8       1.0  0.05193  0.12405  0.59196  1.0000
  O  Te5       1.0  0.06449  0.18821  0.55768  1.0000
  O  Te6       1.0  0.14460  0.10855  0.75746  1.0000
  O  Te7       1.0  0.10125  0.04929  0.73695  1.0000
  O  Te8       1.0  0.02113  0.12898  0.53710  1.0000
  Mg  Mg3       1.0  0.14575  0.05622  0.80408  1.0000
  Mg  Mg4       1.0  0.01996  0.18129  0.49038  1.0000
  C  Sn9       1.0  0.40518  0.41445  0.33864  1.0000
  C   C245      1.0  0.43616  0.40826  0.38859  1.0000
  C  Sn10      1.0  0.44552  0.37360  0.43171  1.0000
  C  Sn11      1.0  0.42345  0.34451  0.42467  1.0000
  C   C246      1.0  0.39249  0.35070  0.37472  1.0000
  C  Sn12      1.0  0.38311  0.38536  0.33160  1.0000
  O  Te9       1.0  0.39634  0.44932  0.29607  1.0000
  O  Te10      1.0  0.47662  0.36808  0.48132  1.0000
  O  Te11      1.0  0.43232  0.30961  0.46730  1.0000
  O  Te12      1.0  0.35204  0.39088  0.28199  1.0000
  Mg  Mg5       1.0  0.47734  0.31569  0.52704  1.0000
  Mg  Mg6       1.0  0.35129  0.44325  0.23616  1.0000
  C  Sn13      1.0  0.05898  0.85690  0.10524  1.0000
  C   C247      1.0  0.05643  0.89189  0.17482  1.0000
  C  Sn14      1.0  0.08384  0.91210  0.20532  1.0000
  C  Sn15      1.0  0.11445  0.89703  0.16536  1.0000
  C   C248      1.0  0.11700  0.86206  0.09580  1.0000
  C  Sn16      1.0  0.08959  0.84183  0.06528  1.0000
  O  Te13      1.0  0.03125  0.83719  0.07581  1.0000
  O  Te14      1.0  0.08068  0.94702  0.27503  1.0000
  O  Te15      1.0  0.14219  0.91677  0.19486  1.0000
  O  Te16      1.0  0.08283  0.81140  0.99559  1.0000
  Mg  Mg7       1.0  0.12552  0.96319  0.29165  1.0000
  Mg  Mg8       1.0  0.03801  0.79521  0.97883  1.0000
  C  Sn17      1.0  0.43526  0.63461  0.98368  1.0000
  C   C249      1.0  0.43957  0.60097  0.90180  1.0000
  C  Sn18      1.0  0.41735  0.58807  0.78883  1.0000
  C  Sn19      1.0  0.39026  0.60924  0.75694  1.0000
  C   C250      1.0  0.38596  0.64286  0.83877  1.0000
  C  Sn20      1.0  0.40817  0.65578  0.95179  1.0000
  O  Te17      1.0  0.46769  0.64251  0.09611  1.0000
  O  Te18      1.0  0.42217  0.55435  0.70852  1.0000
  O  Te19      1.0  0.36773  0.59684  0.64440  1.0000
  O  Te20      1.0  0.41327  0.68501  0.03204  1.0000
  Mg  Mg9       1.0  0.38481  0.54921  0.56599  1.0000
  Mg  Mg10      1.0  0.45062  0.69018  0.17453  1.0000
  C  Sn21      1.0  0.91003  0.09150  0.74775  1.0000
  C   C251      1.0  0.94063  0.09789  0.80448  1.0000
  C  Sn22      1.0  0.94598  0.12613  0.92022  1.0000
  C  Sn23      1.0  0.92020  0.14845  0.98060  1.0000
  C   C252      1.0  0.88962  0.14206  0.92390  1.0000
  C  Sn24      1.0  0.88425  0.11382  0.80813  1.0000
  O  Te21      1.0  0.90524  0.06311  0.63203  1.0000
  O  Te22      1.0  0.97678  0.13199  0.97505  1.0000
  O  Te23      1.0  0.93493  0.17239  0.09640  1.0000
  O  Te24      1.0  0.85347  0.10796  0.75333  1.0000
  Mg  Mg11      1.0  0.98119  0.16958  0.13351  1.0000
  Mg  Mg12      1.0  0.85894  0.06590  0.59495  1.0000
  C  Sn25      1.0  0.40467  0.41585  0.83575  1.0000
  C   C253      1.0  0.43539  0.40935  0.88867  1.0000
  C  Sn26      1.0  0.44427  0.37463  0.93348  1.0000
  C  Sn27      1.0  0.42198  0.34579  0.92512  1.0000
  C   C254      1.0  0.39128  0.35229  0.87220  1.0000
  C  Sn28      1.0  0.38237  0.38701  0.82739  1.0000
  O  Te25      1.0  0.39631  0.45078  0.79154  1.0000
  O  Te26      1.0  0.47513  0.36880  0.98605  1.0000
  O  Te27      1.0  0.43036  0.31084  0.96939  1.0000
  O  Te28      1.0  0.35154  0.39284  0.77481  1.0000
  Mg  Mg13      1.0  0.48511  0.31199  0.03309  1.0000
  Mg  Mg14      1.0  0.35145  0.44516  0.72767  1.0000
  C  Sn29      1.0  0.89435  0.89299  0.25225  1.0000
  C   C255      1.0  0.89122  0.85986  0.33363  1.0000
  C  Sn30      1.0  0.91465  0.84840  0.44008  1.0000
  C  Sn31      1.0  0.94177  0.87051  0.46583  1.0000
  C   C256      1.0  0.94488  0.90362  0.38451  1.0000
  C  Sn32      1.0  0.92147  0.91510  0.27800  1.0000
  O  Te29      1.0  0.87063  0.90391  0.14638  1.0000
  O  Te30      1.0  0.91100  0.81517  0.52001  1.0000
  O  Te31      1.0  0.96549  0.85956  0.57180  1.0000
  O  Te32      1.0  0.92510  0.94831  0.19812  1.0000
  Mg  Mg15      1.0  0.94975  0.81209  0.65241  1.0000
  Mg  Mg16      1.0  0.88637  0.95143  0.06578  1.0000
