data_image0
_chemical_formula_structural       H88C192N32C2Sn2C2HTe2HMgC2Sn2C2HTe2HMgC2Sn2C2HTe2HMgC2Sn2C2HTe2HMgC2Sn2C2HTe2HMgC2Sn2C2HTe2HMgC2Sn2C2HTe2HMgC2Sn2C2HTe2HMgC2Sn2C2HTe2HMgC2Sn2C2HTe2HMgC2Sn2C2HTe2HMgC2Sn2C2HTe2HMgC2Sn2C2HTe2HMgC2Sn2C2HTe2HMgC2Sn2C2HTe2HMgC2Sn2C2HTe2HMg
_chemical_formula_sum              "H120 C256 N32 Sn32 Te32 Mg16"
_cell_length_a       41.9087
_cell_length_b       37.0079
_cell_length_c       7.86823
_cell_angle_alpha    91.2163
_cell_angle_beta     86.9693
_cell_angle_gamma    90.2375

_symmetry_space_group_name_H-M    'P1'
_space_group_IT_number       1

loop_
  _space_group_symop_operation_xyz
  'x, y, z'

loop_
  _atom_site_type_symbol
  _atom_site_label
  _atom_site_symmetry_multiplicity
  _atom_site_fract_x
  _atom_site_fract_y
  _atom_site_fract_z
  _atom_site_occupancy
  H   H1        1.0  0.57185  0.53341  0.02777  1.0000
  H   H2        1.0  0.42766  0.53426  0.46345  1.0000
  H   H3        1.0  0.07278  0.03393  0.03567  1.0000
  H   H4        1.0  0.92956  0.03377  0.47823  1.0000
  H   H5        1.0  0.42852  0.46846  0.47157  1.0000
  H   H6        1.0  0.57263  0.46744  0.03326  1.0000
  H   H7        1.0  0.92989  0.96725  0.47603  1.0000
  H   H8        1.0  0.07296  0.96769  0.03182  1.0000
  H   H9        1.0  0.65913  0.65383  0.18957  1.0000
  H   H10       1.0  0.34052  0.65455  0.30991  1.0000
  H   H11       1.0  0.15902  0.15661  0.18551  1.0000
  H   H12       1.0  0.84004  0.14995  0.29011  1.0000
  H   H13       1.0  0.34198  0.34657  0.32123  1.0000
  H   H14       1.0  0.66025  0.34787  0.19092  1.0000
  H   H15       1.0  0.84114  0.84834  0.31316  1.0000
  H   H16       1.0  0.16077  0.84777  0.18906  1.0000
  H   H17       1.0  0.65712  0.77109  0.17868  1.0000
  H   H18       1.0  0.34289  0.77126  0.34019  1.0000
  H   H19       1.0  0.15904  0.27332  0.16509  1.0000
  H   H20       1.0  0.83707  0.26882  0.38682  1.0000
  H   H21       1.0  0.34314  0.22963  0.31560  1.0000
  H   H22       1.0  0.65667  0.23008  0.13834  1.0000
  H   H23       1.0  0.84057  0.73125  0.35384  1.0000
  H   H24       1.0  0.15859  0.73076  0.17130  1.0000
  H   H25       1.0  0.70955  0.79571  0.27684  1.0000
  H   H26       1.0  0.29109  0.79515  0.23905  1.0000
  H   H27       1.0  0.21220  0.29628  0.26216  1.0000
  H   H28       1.0  0.78522  0.29352  0.29057  1.0000
  H   H29       1.0  0.29046  0.20694  0.21537  1.0000
  H   H30       1.0  0.70782  0.20402  0.23667  1.0000
  H   H31       1.0  0.78853  0.70732  0.25284  1.0000
  H   H32       1.0  0.21124  0.70712  0.26517  1.0000
  H   H33       1.0  0.70642  0.67138  0.05173  1.0000
  H   H34       1.0  0.29332  0.67143  0.44756  1.0000
  H   H35       1.0  0.20553  0.17188  0.04289  1.0000
  H   H36       1.0  0.79225  0.16380  0.39102  1.0000
  H   H37       1.0  0.29550  0.32917  0.46324  1.0000
  H   H38       1.0  0.70744  0.33042  0.06392  1.0000
  H   H39       1.0  0.79335  0.83366  0.44897  1.0000
  H   H40       1.0  0.20789  0.82984  0.04531  1.0000
  H   H41       1.0  0.49910  0.62529  0.24076  1.0000
  H   H42       1.0  0.99959  0.12513  0.25453  1.0000
  H   H43       1.0  0.50153  0.37638  0.25723  1.0000
  H   H44       1.0  0.00097  0.87613  0.24213  1.0000
  H   H45       1.0  0.57016  0.53315  0.51648  1.0000
  H   H46       1.0  0.42884  0.53463  0.97802  1.0000
  H   H47       1.0  0.07356  0.02937  0.53776  1.0000
  H   H48       1.0  0.92997  0.03089  0.98084  1.0000
  H   H49       1.0  0.42925  0.46871  0.98192  1.0000
  H   H50       1.0  0.57065  0.46722  0.52150  1.0000
  H   H51       1.0  0.93014  0.96478  0.98072  1.0000
  H   H52       1.0  0.07303  0.96338  0.53447  1.0000
  H   H53       1.0  0.65823  0.65513  0.68194  1.0000
  H   H54       1.0  0.33860  0.64921  0.80378  1.0000
  H   H55       1.0  0.15953  0.15280  0.70373  1.0000
  H   H56       1.0  0.84312  0.15171  0.79775  1.0000
  H   H57       1.0  0.34088  0.34809  0.81327  1.0000
  H   H58       1.0  0.66093  0.35058  0.70234  1.0000
  H   H59       1.0  0.83889  0.84876  0.82455  1.0000
  H   H60       1.0  0.15759  0.84022  0.67922  1.0000
  H   H61       1.0  0.65525  0.77270  0.67741  1.0000
  H   H62       1.0  0.33714  0.76679  0.84187  1.0000
  H   H63       1.0  0.15924  0.26986  0.64931  1.0000
  H   H64       1.0  0.84245  0.27098  0.88188  1.0000
  H   H65       1.0  0.34318  0.23117  0.81947  1.0000
  H   H66       1.0  0.66113  0.23184  0.64768  1.0000
  H   H67       1.0  0.83822  0.73161  0.85879  1.0000
  H   H68       1.0  0.15331  0.72367  0.67257  1.0000
  H   H69       1.0  0.70708  0.79702  0.78317  1.0000
  H   H70       1.0  0.28430  0.78938  0.74671  1.0000
  H   H71       1.0  0.21181  0.29494  0.74158  1.0000
  H   H72       1.0  0.79095  0.29641  0.78307  1.0000
  H   H73       1.0  0.29069  0.20638  0.72405  1.0000
  H   H74       1.0  0.71305  0.20694  0.73973  1.0000
  H   H75       1.0  0.78569  0.70822  0.75633  1.0000
  H   H76       1.0  0.20547  0.70054  0.77524  1.0000
  H   H77       1.0  0.70496  0.67333  0.54907  1.0000
  H   H78       1.0  0.29056  0.66461  0.93771  1.0000
  H   H79       1.0  0.20637  0.16728  0.56729  1.0000
  H   H80       1.0  0.79607  0.16681  0.89272  1.0000
  H   H81       1.0  0.29384  0.33073  0.94866  1.0000
  H   H82       1.0  0.70961  0.33379  0.57703  1.0000
  H   H83       1.0  0.79144  0.83365  0.96436  1.0000
  H   H84       1.0  0.20325  0.82180  0.53893  1.0000
  H   H85       1.0  0.49936  0.62550  0.74844  1.0000
  H   H86       1.0  0.00100  0.12165  0.75145  1.0000
  H   H87       1.0  0.50048  0.37650  0.75883  1.0000
  H   H88       1.0  0.99997  0.87268  0.74350  1.0000
  C   C1        1.0  0.52724  0.57789  0.18596  1.0000
  C   C2        1.0  0.47154  0.57790  0.30150  1.0000
  C   C3        1.0  0.02831  0.07802  0.19733  1.0000
  C   C4        1.0  0.97262  0.07733  0.31299  1.0000
  C   C5        1.0  0.47313  0.42372  0.31312  1.0000
  C   C6        1.0  0.52870  0.42399  0.19649  1.0000
  C   C7        1.0  0.97330  0.92355  0.30585  1.0000
  C   C8        1.0  0.02901  0.92358  0.18992  1.0000
  C   C9        1.0  0.52705  0.53945  0.17706  1.0000
  C   C10       1.0  0.47233  0.53960  0.31376  1.0000
  C   C11       1.0  0.02828  0.03951  0.18687  1.0000
  C   C12       1.0  0.97370  0.03908  0.32486  1.0000
  C   C13       1.0  0.47322  0.46221  0.32076  1.0000
  C   C14       1.0  0.52786  0.46222  0.18314  1.0000
  C   C15       1.0  0.97399  0.96192  0.32115  1.0000
  C   C16       1.0  0.02855  0.96201  0.18276  1.0000
  C   C17       1.0  0.55265  0.51906  0.09592  1.0000
  C   C18       1.0  0.44725  0.51957  0.39832  1.0000
  C   C19       1.0  0.05361  0.01928  0.10247  1.0000
  C   C20       1.0  0.94866  0.01896  0.40923  1.0000
  C   C21       1.0  0.44769  0.48264  0.40217  1.0000
  C   C22       1.0  0.55306  0.48214  0.09880  1.0000
  C   C23       1.0  0.94883  0.98201  0.40776  1.0000
  C   C24       1.0  0.05373  0.98230  0.10052  1.0000
  C   C25       1.0  0.64012  0.66639  0.12200  1.0000
  C   C26       1.0  0.35945  0.66694  0.38149  1.0000
  C   C27       1.0  0.13981  0.16884  0.11826  1.0000
  C   C28       1.0  0.85821  0.16302  0.36472  1.0000
  C   C29       1.0  0.36123  0.33383  0.38586  1.0000
  C   C30       1.0  0.64110  0.33554  0.12083  1.0000
  C   C31       1.0  0.85985  0.83609  0.38389  1.0000
  C   C32       1.0  0.14154  0.83474  0.12212  1.0000
  C   C33       1.0  0.64669  0.70109  0.07314  1.0000
  C   C34       1.0  0.35289  0.70154  0.43775  1.0000
  C   C35       1.0  0.14668  0.20315  0.06474  1.0000
  C   C36       1.0  0.85036  0.19711  0.42433  1.0000
  C   C37       1.0  0.35467  0.29901  0.43288  1.0000
  C   C38       1.0  0.64733  0.30096  0.06273  1.0000
  C   C39       1.0  0.85240  0.80228  0.44209  1.0000
  C   C40       1.0  0.14805  0.79987  0.06963  1.0000
  C   C41       1.0  0.67715  0.71841  0.11574  1.0000
  C   C42       1.0  0.32265  0.71864  0.39494  1.0000
  C   C43       1.0  0.17758  0.21991  0.10465  1.0000
  C   C44       1.0  0.81968  0.21365  0.38582  1.0000
  C   C45       1.0  0.32397  0.28221  0.38961  1.0000
  C   C46       1.0  0.67743  0.28310  0.10150  1.0000
  C   C47       1.0  0.82167  0.78519  0.40219  1.0000
  C   C48       1.0  0.17864  0.78308  0.10888  1.0000
  C   C49       1.0  0.67862  0.75457  0.17277  1.0000
  C   C50       1.0  0.32141  0.75458  0.34200  1.0000
  C   C51       1.0  0.18007  0.25606  0.16037  1.0000
  C   C52       1.0  0.81681  0.25109  0.36489  1.0000
  C   C53       1.0  0.32193  0.24660  0.32569  1.0000
  C   C54       1.0  0.67826  0.24642  0.14353  1.0000
  C   C55       1.0  0.81960  0.74854  0.35341  1.0000
  C   C56       1.0  0.18014  0.74735  0.16448  1.0000
  C   C57       1.0  0.70729  0.76819  0.22782  1.0000
  C   C58       1.0  0.29302  0.76776  0.28463  1.0000
  C   C59       1.0  0.20913  0.26873  0.21509  1.0000
  C   C60       1.0  0.78837  0.26484  0.31126  1.0000
  C   C61       1.0  0.29297  0.23400  0.26953  1.0000
  C   C62       1.0  0.70629  0.23203  0.19918  1.0000
  C   C63       1.0  0.79095  0.73517  0.29695  1.0000
  C   C64       1.0  0.20891  0.73430  0.21751  1.0000
  C   C65       1.0  0.73415  0.74554  0.22484  1.0000
  C   C66       1.0  0.26621  0.74485  0.28117  1.0000
  C   C67       1.0  0.23535  0.24514  0.21361  1.0000
  C   C68       1.0  0.76307  0.24106  0.27918  1.0000
  C   C69       1.0  0.26630  0.25703  0.27847  1.0000
  C   C70       1.0  0.73317  0.25454  0.21244  1.0000
  C   C71       1.0  0.76464  0.75843  0.29108  1.0000
  C   C72       1.0  0.23579  0.75717  0.21493  1.0000
  C   C73       1.0  0.70589  0.69867  0.10723  1.0000
  C   C74       1.0  0.29401  0.69861  0.39642  1.0000
  C   C75       1.0  0.20579  0.19922  0.09737  1.0000
  C   C76       1.0  0.79209  0.19252  0.36284  1.0000
  C   C77       1.0  0.29547  0.30236  0.40270  1.0000
  C   C78       1.0  0.70624  0.30266  0.10783  1.0000
  C   C79       1.0  0.79342  0.80571  0.40154  1.0000
  C   C80       1.0  0.20743  0.80296  0.09984  1.0000
  C   C81       1.0  0.62485  0.72252  0.98729  1.0000
  C   C82       1.0  0.37432  0.72312  0.53046  1.0000
  C   C83       1.0  0.12488  0.22453  0.97851  1.0000
  C   C84       1.0  0.87135  0.21911  0.51813  1.0000
  C   C85       1.0  0.37644  0.27722  0.51711  1.0000
  C   C86       1.0  0.62534  0.27978  0.97157  1.0000
  C   C87       1.0  0.87346  0.78136  0.53529  1.0000
  C   C88       1.0  0.12598  0.77782  0.98362  1.0000
  C   C89       1.0  0.49922  0.59590  0.24212  1.0000
  C   C90       1.0  0.00019  0.09573  0.25522  1.0000
  C   C91       1.0  0.50114  0.40579  0.25593  1.0000
  C   C92       1.0  0.00106  0.90554  0.24555  1.0000
  C   C93       1.0  0.49985  0.52024  0.24653  1.0000
  C   C94       1.0  0.00115  0.02001  0.25535  1.0000
  C   C95       1.0  0.50028  0.48151  0.24999  1.0000
  C   C96       1.0  0.00128  0.98126  0.25349  1.0000
  C   C97       1.0  0.52715  0.57798  0.68697  1.0000
  C   C98       1.0  0.47194  0.57802  0.80870  1.0000
  C   C99       1.0  0.02900  0.07408  0.69638  1.0000
  C   C100      1.0  0.97330  0.07441  0.81220  1.0000
  C   C101      1.0  0.47275  0.42410  0.81553  1.0000
  C   C102      1.0  0.52824  0.42376  0.69651  1.0000
  C   C103      1.0  0.97285  0.92050  0.80884  1.0000
  C   C104      1.0  0.02819  0.91986  0.68946  1.0000
  C   C105      1.0  0.52674  0.53951  0.67702  1.0000
  C   C106      1.0  0.47277  0.53975  0.82166  1.0000
  C   C107      1.0  0.02858  0.03566  0.68576  1.0000
  C   C108      1.0  0.97399  0.03611  0.82467  1.0000
  C   C109      1.0  0.47325  0.46251  0.82577  1.0000
  C   C110      1.0  0.52736  0.46207  0.68246  1.0000
  C   C111      1.0  0.97389  0.95885  0.82360  1.0000
  C   C112      1.0  0.02820  0.95826  0.68289  1.0000
  C   C113      1.0  0.55154  0.51895  0.58972  1.0000
  C   C114      1.0  0.44792  0.51987  0.90891  1.0000
  C   C115      1.0  0.05395  0.01516  0.60324  1.0000
  C   C116      1.0  0.94902  0.01620  0.91102  1.0000
  C   C117      1.0  0.44814  0.48296  0.91090  1.0000
  C   C118      1.0  0.55185  0.48202  0.59266  1.0000
  C   C119      1.0  0.94904  0.97926  0.91094  1.0000
  C   C120      1.0  0.05371  0.97818  0.60149  1.0000
  C   C121      1.0  0.63899  0.66772  0.61653  1.0000
  C   C122      1.0  0.35724  0.66293  0.87257  1.0000
  C   C123      1.0  0.14060  0.16452  0.63284  1.0000
  C   C124      1.0  0.86152  0.16441  0.87176  1.0000
  C   C125      1.0  0.35995  0.33563  0.88046  1.0000
  C   C126      1.0  0.64234  0.33713  0.63198  1.0000
  C   C127      1.0  0.85793  0.83587  0.89034  1.0000
  C   C128      1.0  0.13817  0.82792  0.61116  1.0000
  C   C129      1.0  0.64515  0.70264  0.56998  1.0000
  C   C130      1.0  0.34954  0.69731  0.92792  1.0000
  C   C131      1.0  0.14735  0.19845  0.57398  1.0000
  C   C132      1.0  0.85435  0.19888  0.92809  1.0000
  C   C133      1.0  0.35343  0.30093  0.92923  1.0000
  C   C134      1.0  0.64989  0.30276  0.57524  1.0000
  C   C135      1.0  0.85051  0.80194  0.94676  1.0000
  C   C136      1.0  0.14376  0.79277  0.56060  1.0000
  C   C137      1.0  0.67546  0.72015  0.61319  1.0000
  C   C138      1.0  0.31854  0.71314  0.88926  1.0000
  C   C139      1.0  0.17808  0.21587  0.61007  1.0000
  C   C140      1.0  0.82412  0.21619  0.88664  1.0000
  C   C141      1.0  0.32301  0.28360  0.88596  1.0000
  C   C142      1.0  0.68049  0.28575  0.61404  1.0000
  C   C143      1.0  0.81951  0.78536  0.90955  1.0000
  C   C144      1.0  0.17382  0.77545  0.60443  1.0000
  C   C145      1.0  0.67673  0.75617  0.67237  1.0000
  C   C146      1.0  0.31613  0.74935  0.84192  1.0000
  C   C147      1.0  0.18031  0.25282  0.65224  1.0000
  C   C148      1.0  0.82186  0.25361  0.86196  1.0000
  C   C149      1.0  0.32161  0.24755  0.82750  1.0000
  C   C150      1.0  0.68227  0.24894  0.65305  1.0000
  C   C151      1.0  0.81724  0.74889  0.85864  1.0000
  C   C152      1.0  0.17493  0.74012  0.66537  1.0000
  C   C153      1.0  0.70516  0.76969  0.73111  1.0000
  C   C154      1.0  0.28723  0.76187  0.78860  1.0000
  C   C155      1.0  0.20911  0.26669  0.70426  1.0000
  C   C156      1.0  0.79359  0.26777  0.80733  1.0000
  C   C157      1.0  0.29290  0.23391  0.77307  1.0000
  C   C158      1.0  0.71082  0.23502  0.70454  1.0000
  C   C159      1.0  0.78851  0.73591  0.80195  1.0000
  C   C160      1.0  0.20345  0.72736  0.72317  1.0000
  C   C161      1.0  0.73202  0.74704  0.72896  1.0000
  C   C162      1.0  0.26103  0.73812  0.78425  1.0000
  C   C163      1.0  0.23538  0.24345  0.71304  1.0000
  C   C164      1.0  0.76775  0.24445  0.77930  1.0000
  C   C165      1.0  0.26600  0.25653  0.77679  1.0000
  C   C166      1.0  0.73746  0.25796  0.71610  1.0000
  C   C167      1.0  0.76237  0.75947  0.79797  1.0000
  C   C168      1.0  0.23044  0.75006  0.71923  1.0000
  C   C169      1.0  0.70422  0.70051  0.60557  1.0000
  C   C170      1.0  0.29039  0.69214  0.89070  1.0000
  C   C171      1.0  0.20638  0.19545  0.61143  1.0000
  C   C172      1.0  0.79627  0.19554  0.86426  1.0000
  C   C173      1.0  0.29430  0.30338  0.89391  1.0000
  C   C174      1.0  0.70909  0.30587  0.61890  1.0000
  C   C175      1.0  0.79134  0.80603  0.91291  1.0000
  C   C176      1.0  0.20261  0.79522  0.59646  1.0000
  C   C177      1.0  0.62321  0.72415  0.48562  1.0000
  C   C178      1.0  0.37088  0.72007  0.01544  1.0000
  C   C179      1.0  0.12562  0.21898  0.48319  1.0000
  C   C180      1.0  0.87556  0.22017  0.02361  1.0000
  C   C181      1.0  0.37518  0.27968  0.01642  1.0000
  C   C182      1.0  0.62873  0.28083  0.48230  1.0000
  C   C183      1.0  0.87208  0.78012  0.03201  1.0000
  C   C184      1.0  0.12156  0.77138  0.47240  1.0000
  C   C185      1.0  0.49947  0.59609  0.74810  1.0000
  C   C186      1.0  0.00107  0.09225  0.75277  1.0000
  C   C187      1.0  0.50055  0.40590  0.75714  1.0000
  C   C188      1.0  0.00028  0.90209  0.74700  1.0000
  C   C189      1.0  0.49994  0.52033  0.75091  1.0000
  C   C190      1.0  0.00125  0.01662  0.75482  1.0000
  C   C191      1.0  0.50023  0.48158  0.75327  1.0000
  C   C192      1.0  0.00116  0.97787  0.75401  1.0000
  N   N1        1.0  0.73352  0.71134  0.16095  1.0000
  N   N2        1.0  0.26667  0.71085  0.34055  1.0000
  N   N3        1.0  0.23372  0.21092  0.15107  1.0000
  N   N4        1.0  0.76473  0.20530  0.30995  1.0000
  N   N5        1.0  0.26757  0.29069  0.34811  1.0000
  N   N6        1.0  0.73321  0.28933  0.16306  1.0000
  N   N7        1.0  0.76578  0.79317  0.34737  1.0000
  N   N8        1.0  0.23513  0.79092  0.15256  1.0000
  N   N9        1.0  0.60641  0.74245  0.41016  1.0000
  N   N10       1.0  0.38731  0.73939  0.09217  1.0000
  N   N11       1.0  0.10888  0.23633  0.40290  1.0000
  N   N12       1.0  0.89192  0.23826  0.10680  1.0000
  N   N13       1.0  0.39205  0.26201  0.09452  1.0000
  N   N14       1.0  0.61267  0.26227  0.39953  1.0000
  N   N15       1.0  0.88855  0.76157  0.10819  1.0000
  N   N16       1.0  0.10431  0.75349  0.39352  1.0000
  N   N17       1.0  0.73163  0.71307  0.66227  1.0000
  N   N18       1.0  0.26249  0.70382  0.83925  1.0000
  N   N19       1.0  0.23412  0.20837  0.66209  1.0000
  N   N20       1.0  0.76903  0.20874  0.81184  1.0000
  N   N21       1.0  0.26667  0.29078  0.83985  1.0000
  N   N22       1.0  0.73664  0.29290  0.66930  1.0000
  N   N23       1.0  0.76361  0.79394  0.85785  1.0000
  N   N24       1.0  0.23004  0.78348  0.65325  1.0000
  N   N25       1.0  0.60800  0.74044  0.91013  1.0000
  N   N26       1.0  0.39074  0.74160  0.61161  1.0000
  N   N27       1.0  0.10792  0.24244  0.90197  1.0000
  N   N28       1.0  0.88743  0.23790  0.59964  1.0000
  N   N29       1.0  0.39324  0.25894  0.59276  1.0000
  N   N30       1.0  0.60839  0.26181  0.89119  1.0000
  N   N31       1.0  0.88941  0.76366  0.61851  1.0000
  N   N32       1.0  0.10877  0.75933  0.90751  1.0000
  C   C193      1.0  0.55937  0.64115  0.04909  1.0000
  C   C194      1.0  0.55615  0.60664  0.11674  1.0000
  C  Sn1       1.0  0.58168  0.59078  0.19435  1.0000
  C  Sn2       1.0  0.61096  0.60991  0.20427  1.0000
  C   C195      1.0  0.61394  0.64443  0.13631  1.0000
  C   C196      1.0  0.58824  0.66004  0.05888  1.0000
  H   H89       1.0  0.52957  0.65770  0.98926  1.0000
  O  Te1       1.0  0.57806  0.55627  0.26123  1.0000
  O  Te2       1.0  0.63686  0.59471  0.28120  1.0000
  H   H90       1.0  0.59074  0.68677  0.00661  1.0000
  Mg  Mg1       1.0  0.62024  0.54698  0.35364  1.0000
  C   C197      1.0  0.39020  0.60227  0.28277  1.0000
  C   C198      1.0  0.38622  0.63494  0.37364  1.0000
  C  Sn3       1.0  0.41214  0.65126  0.44985  1.0000
  C  Sn4       1.0  0.44258  0.63450  0.43454  1.0000
  C   C199      1.0  0.44631  0.60183  0.34326  1.0000
  C   C200      1.0  0.42022  0.58573  0.26755  1.0000
  H   H91       1.0  0.37002  0.58982  0.22411  1.0000
  O  Te3       1.0  0.40775  0.68389  0.54023  1.0000
  O  Te4       1.0  0.46889  0.65023  0.50938  1.0000
  H   H92       1.0  0.42331  0.56045  0.19711  1.0000
  Mg  Mg2       1.0  0.45088  0.69478  0.61959  1.0000
  C   C201      1.0  0.09582  0.09110  0.21474  1.0000
  C   C202      1.0  0.06411  0.09714  0.17667  1.0000
  C  Sn5       1.0  0.05579  0.12864  0.09500  1.0000
  C  Sn6       1.0  0.07972  0.15452  0.05074  1.0000
  C   C203      1.0  0.11138  0.14821  0.08927  1.0000
  C   C204      1.0  0.11943  0.11661  0.17107  1.0000
  H   H93       1.0  0.10205  0.06664  0.27795  1.0000
  O  Te5       1.0  0.02400  0.13426  0.05795  1.0000
  O  Te6       1.0  0.06216  0.19069  0.96899  1.0000
  H   H94       1.0  0.14399  0.11193  0.20044  1.0000
  Mg  Mg3       1.0  0.01551  0.18611  0.94539  1.0000
  C   C205      1.0  0.93896  0.14089  0.44497  1.0000
  C   C206      1.0  0.94301  0.10575  0.37911  1.0000
  C  Sn7       1.0  0.91808  0.08826  0.29919  1.0000
  C  Sn8       1.0  0.88859  0.10636  0.28510  1.0000
  C   C207      1.0  0.88479  0.14153  0.35130  1.0000
  C   C208      1.0  0.90988  0.15877  0.43107  1.0000
  H   H95       1.0  0.95838  0.15424  0.50662  1.0000
  O  Te7       1.0  0.92253  0.05314  0.23414  1.0000
  O  Te8       1.0  0.86329  0.08952  0.20578  1.0000
  H   H96       1.0  0.90675  0.18599  0.48196  1.0000
  Mg  Mg4       1.0  0.88094  0.04153  0.13722  1.0000
  C   C209      1.0  0.42788  0.34736  0.45865  1.0000
  C   C210      1.0  0.39638  0.35373  0.41773  1.0000
  C  Sn9       1.0  0.38864  0.38519  0.33409  1.0000
  C  Sn10      1.0  0.41294  0.41069  0.29074  1.0000
  C   C211      1.0  0.44439  0.40405  0.33213  1.0000
  C   C212      1.0  0.45187  0.37249  0.41588  1.0000
  H   H97       1.0  0.43368  0.32293  0.52337  1.0000
  O  Te9       1.0  0.35705  0.39113  0.29420  1.0000
  O  Te10      1.0  0.40587  0.44235  0.20707  1.0000
  H   H98       1.0  0.47626  0.36755  0.44746  1.0000
  Mg  Mg5       1.0  0.35929  0.43831  0.17982  1.0000
  C   C213      1.0  0.61044  0.40079  0.21618  1.0000
  C   C214      1.0  0.61345  0.36586  0.14636  1.0000
  C  Sn11      1.0  0.58770  0.34937  0.06933  1.0000
  C  Sn12      1.0  0.55843  0.36828  0.06224  1.0000
  C   C215      1.0  0.55567  0.40323  0.13236  1.0000
  C   C216      1.0  0.58159  0.41946  0.20918  1.0000
  H   H99       1.0  0.63049  0.41337  0.27554  1.0000
  O  Te11      1.0  0.59111  0.31445  0.00025  1.0000
  O  Te12      1.0  0.52241  0.35691  0.98595  1.0000
  H   H100      1.0  0.57926  0.44652  0.26314  1.0000
  Mg  Mg6       1.0  0.53878  0.30881  0.90978  1.0000
  C   C217      1.0  0.94123  0.86057  0.44511  1.0000
  C   C218      1.0  0.94531  0.89289  0.35774  1.0000
  C  Sn13      1.0  0.91929  0.90925  0.28675  1.0000
  C  Sn14      1.0  0.88864  0.89289  0.30379  1.0000
  C   C219      1.0  0.88480  0.86058  0.39153  1.0000
  C   C220      1.0  0.91100  0.84443  0.46203  1.0000
  H   H101      1.0  0.96150  0.84809  0.49974  1.0000
  O  Te13      1.0  0.92380  0.94153  0.19981  1.0000
  O  Te14      1.0  0.86222  0.90867  0.23413  1.0000
  H   H102      1.0  0.90783  0.81942  0.52976  1.0000
  Mg  Mg7       1.0  0.88044  0.95265  0.12714  1.0000
  C   C221      1.0  0.11091  0.90059  0.20431  1.0000
  C   C222      1.0  0.11387  0.86524  0.13957  1.0000
  C  Sn15      1.0  0.08792  0.84801  0.06785  1.0000
  C  Sn16      1.0  0.05849  0.86659  0.06095  1.0000
  C   C223      1.0  0.05577  0.90196  0.12595  1.0000
  C   C224      1.0  0.08189  0.91894  0.19750  1.0000
  H   H103      1.0  0.13112  0.91374  0.25959  1.0000
  O  Te15      1.0  0.09129  0.81268  0.00381  1.0000
  O  Te16      1.0  0.02226  0.85448  0.98990  1.0000
  H   H104      1.0  0.07959  0.94632  0.24751  1.0000
  Mg  Mg8       1.0  0.03866  0.80604  0.91943  1.0000
  C   C225      1.0  0.59484  0.58942  0.70008  1.0000
  C   C226      1.0  0.56314  0.59637  0.66494  1.0000
  C  Sn17      1.0  0.55513  0.62855  0.58808  1.0000
  C  Sn18      1.0  0.57937  0.65419  0.54571  1.0000
  C   C227      1.0  0.61102  0.64697  0.58128  1.0000
  C   C228      1.0  0.61877  0.61469  0.65827  1.0000
  H   H105      1.0  0.60084  0.56443  0.75956  1.0000
  O  Te17      1.0  0.52333  0.63507  0.55392  1.0000
  O  Te18      1.0  0.57204  0.68657  0.46875  1.0000
  H   H106      1.0  0.64332  0.60930  0.68536  1.0000
  Mg  Mg9       1.0  0.52525  0.68313  0.44766  1.0000
  C   C229      1.0  0.39053  0.59961  0.77774  1.0000
  C   C230      1.0  0.38519  0.63240  0.86586  1.0000
  C  Sn19      1.0  0.41024  0.64999  0.94424  1.0000
  C  Sn20      1.0  0.44118  0.63442  0.93394  1.0000
  C   C231      1.0  0.44628  0.60162  0.84538  1.0000
  C   C232      1.0  0.42104  0.58424  0.76747  1.0000
  H   H107      1.0  0.37101  0.58617  0.71738  1.0000
  O  Te19      1.0  0.41440  0.67826  0.03182  1.0000
  O  Te20      1.0  0.47655  0.64697  0.01105  1.0000
  H   H108      1.0  0.42518  0.55887  0.69916  1.0000
  Mg  Mg10      1.0  0.45678  0.69114  0.11590  1.0000
  C   C233      1.0  0.09626  0.08685  0.72673  1.0000
  C   C234      1.0  0.06491  0.09279  0.68195  1.0000
  C  Sn21      1.0  0.05724  0.12408  0.59676  1.0000
  C  Sn22      1.0  0.08145  0.14984  0.55577  1.0000
  C   C235      1.0  0.11274  0.14363  0.60101  1.0000
  C   C236      1.0  0.12015  0.11224  0.68629  1.0000
  H   H109      1.0  0.10200  0.06255  0.79262  1.0000
  O  Te21      1.0  0.02580  0.12959  0.55303  1.0000
  O  Te22      1.0  0.07444  0.18133  0.47062  1.0000
  H   H110      1.0  0.14443  0.10764  0.72084  1.0000
  Mg  Mg11      1.0  0.02807  0.17669  0.43796  1.0000
  C   C237      1.0  0.89182  0.09847  0.79188  1.0000
  C   C238      1.0  0.88822  0.13232  0.87258  1.0000
  C  Sn23      1.0  0.91438  0.14948  0.94257  1.0000
  C  Sn24      1.0  0.94468  0.13238  0.93131  1.0000
  C   C239      1.0  0.94804  0.09853  0.85020  1.0000
  C   C240      1.0  0.92170  0.08159  0.78065  1.0000
  H   H111      1.0  0.87145  0.08537  0.73798  1.0000
  O  Te23      1.0  0.92027  0.17883  0.02282  1.0000
  O  Te24      1.0  0.98114  0.14447  0.00010  1.0000
  H   H112      1.0  0.92450  0.05539  0.71807  1.0000
  Mg  Mg12      1.0  0.96362  0.19053  0.09697  1.0000
  C   C241      1.0  0.40577  0.41179  0.78113  1.0000
  C   C242      1.0  0.43574  0.40767  0.84803  1.0000
  C  Sn25      1.0  0.44275  0.37651  0.93583  1.0000
  C  Sn26      1.0  0.41927  0.34900  0.95681  1.0000
  C   C243      1.0  0.38937  0.35337  0.88929  1.0000
  C   C244      1.0  0.38260  0.38467  0.80170  1.0000
  H   H113      1.0  0.40053  0.43600  0.71327  1.0000
  O  Te25      1.0  0.48272  0.36837  0.00192  1.0000
  O  Te26      1.0  0.43556  0.31310  0.04396  1.0000
  H   H114      1.0  0.35940  0.38784  0.74981  1.0000
  Mg  Mg13      1.0  0.48003  0.32061  0.11084  1.0000
  C   C245      1.0  0.59551  0.41352  0.72537  1.0000
  C   C246      1.0  0.56536  0.40747  0.66218  1.0000
  C  Sn27      1.0  0.55842  0.37464  0.58112  1.0000
  C  Sn28      1.0  0.58216  0.34739  0.56322  1.0000
  C   C247      1.0  0.61224  0.35369  0.62698  1.0000
  C   C248      1.0  0.61892  0.38665  0.70783  1.0000
  H   H115      1.0  0.60068  0.43901  0.78801  1.0000
  O  Te27      1.0  0.52818  0.36905  0.51867  1.0000
  O  Te28      1.0  0.57586  0.31432  0.48280  1.0000
  H   H116      1.0  0.64226  0.39131  0.75684  1.0000
  Mg  Mg14      1.0  0.53107  0.31952  0.41877  1.0000
  C   C249      1.0  0.89039  0.89957  0.79948  1.0000
  C   C250      1.0  0.88667  0.86480  0.86376  1.0000
  C  Sn29      1.0  0.91249  0.84729  0.93101  1.0000
  C  Sn30      1.0  0.94257  0.86498  0.93383  1.0000
  C   C251      1.0  0.94604  0.89977  0.86932  1.0000
  C   C252      1.0  0.92004  0.91704  0.80227  1.0000
  H   H117      1.0  0.87028  0.91294  0.74768  1.0000
  O  Te29      1.0  0.90836  0.81255  0.99465  1.0000
  O  Te30      1.0  0.97868  0.84364  0.00037  1.0000
  H   H118      1.0  0.92293  0.94397  0.75262  1.0000
  Mg  Mg15      1.0  0.96113  0.79627  0.07211  1.0000
  C   C253      1.0  0.07242  0.84303  0.53107  1.0000
  C   C254      1.0  0.10378  0.84851  0.57835  1.0000
  C  Sn31      1.0  0.11184  0.87970  0.66986  1.0000
  C  Sn32      1.0  0.08801  0.90583  0.71472  1.0000
  C   C255      1.0  0.05671  0.90008  0.66693  1.0000
  C   C256      1.0  0.04890  0.86879  0.57532  1.0000
  H   H119      1.0  0.06637  0.81881  0.46027  1.0000
  O  Te31      1.0  0.14329  0.88476  0.71602  1.0000
  O  Te32      1.0  0.09542  0.93724  0.80620  1.0000
  H   H120      1.0  0.02462  0.86454  0.53883  1.0000
  Mg  Mg16      1.0  0.14163  0.93191  0.84001  1.0000
