data_image0
_cell_length_a       36.875
_cell_length_b       36.875
_cell_length_c       8.2088
_cell_angle_alpha    90
_cell_angle_beta     90
_cell_angle_gamma    120

_symmetry_space_group_name_H-M    "P 1"
_symmetry_int_tables_number       1

loop_
  _symmetry_equiv_pos_as_xyz
  'x, y, z'

loop_
  _atom_site_label
  _atom_site_occupancy
  _atom_site_fract_x
  _atom_site_fract_y
  _atom_site_fract_z
  _atom_site_thermal_displace_type
  _atom_site_B_iso_or_equiv
  _atom_site_type_symbol
  C1       1.0000 0.28875  0.64714  0.26110  Biso   1.000  C 
  C2       1.0000 0.71125  0.35286  0.26110  Biso   1.000  C 
  N1       1.0000 0.44799  0.88744  0.15683  Biso   1.000  N 
  N2       1.0000 0.55201  0.11256  0.15683  Biso   1.000  N 
  C3       1.0000 0.30785  0.62235  0.26394  Biso   1.000  C 
  C4       1.0000 0.69215  0.37765  0.26394  Biso   1.000  C 
  C5       1.0000 0.48762  0.91479  0.24078  Biso   1.000  C 
  C6       1.0000 0.51238  0.08521  0.24078  Biso   1.000  C 
  C7       1.0000 0.24240  0.62793  0.25689  Biso   1.000  C 
  C8       1.0000 0.75760  0.37207  0.25689  Biso   1.000  C 
  C9       1.0000 0.49476  0.95922  0.26224  Biso   1.000  C 
  C10      1.0000 0.50524  0.04078  0.26224  Biso   1.000  C 
  C11      1.0000 0.35324  0.57751  0.15515  Biso   1.000  C 
  C12      1.0000 0.64676  0.42249  0.15515  Biso   1.000  C 
  C13      1.0000 0.53520  0.99447  0.28279  Biso   1.000  C 
  C14      1.0000 0.46480  0.00553  0.28279  Biso   1.000  C 
  C15      1.0000 0.37342  0.55424  0.13780  Biso   1.000  C 
  C16      1.0000 0.62658  0.44576  0.13780  Biso   1.000  C 
  O1       1.0000 0.56930  0.98784  0.30969  Biso   1.000  O 
  O2       1.0000 0.43070  0.01216  0.30969  Biso   1.000  O 
  C17      1.0000 0.41279  0.56830  0.20806  Biso   1.000  C 
  C18      1.0000 0.58721  0.43170  0.20806  Biso   1.000  C 
  H1       1.0000 0.40933  0.70002  0.23670  Biso   1.000  H 
  H2       1.0000 0.59067  0.29998  0.23670  Biso   1.000  H 
  C19      1.0000 0.43170  0.60555  0.29751  Biso   1.000  C 
  C20      1.0000 0.56830  0.39445  0.29751  Biso   1.000  C 
  C21      1.0000 0.41138  0.62871  0.31677  Biso   1.000  C 
  C22      1.0000 0.58862  0.37129  0.31677  Biso   1.000  C 
  N3       1.0000 0.43490  0.54629  0.17917  Biso   1.000  N 
  N4       1.0000 0.56510  0.45371  0.17917  Biso   1.000  N 
  C23      1.0000 0.42430  0.50736  0.26484  Biso   1.000  C 
  C24      1.0000 0.57570  0.49264  0.26484  Biso   1.000  C 
  C25      1.0000 0.46305  0.50276  0.28811  Biso   1.000  C 
  C26      1.0000 0.53695  0.49724  0.28811  Biso   1.000  C 
  H3       1.0000 0.43780  0.89939  0.06310  Biso   1.000  H 
  H4       1.0000 0.56220  0.10061  0.06310  Biso   1.000  H 
  C27      1.0000 0.46025  0.46334  0.30837  Biso   1.000  C 
  C28      1.0000 0.53975  0.53666  0.30837  Biso   1.000  C 
  C29      1.0000 0.52183  0.91427  0.15013  Biso   1.000  C 
  C30      1.0000 0.47817  0.08573  0.15013  Biso   1.000  C 
  C31      1.0000 0.49729  0.46106  0.30223  Biso   1.000  C 
  C32      1.0000 0.50271  0.53894  0.30223  Biso   1.000  C 
  N5       1.0000 0.54876  0.91379  0.07956  Biso   1.000  N 
  N6       1.0000 0.45124  0.08621  0.07956  Biso   1.000  N 
  O3       1.0000 0.42043  0.42775  0.33419  Biso   1.000  O 
  O4       1.0000 0.57957  0.57225  0.33419  Biso   1.000  O 
  H5       1.0000 0.48647  0.90167  0.36260  Biso   1.000  H 
  H6       1.0000 0.51353  0.09833  0.36260  Biso   1.000  H 
  C33      1.0000 0.58186  0.61009  0.38888  Biso   1.000  C 
  C34      1.0000 0.41814  0.38991  0.38888  Biso   1.000  C 
  C35      1.0000 0.35584  0.70912  0.23953  Biso   1.000  C 
  C36      1.0000 0.64416  0.29088  0.23953  Biso   1.000  C 
  H7       1.0000 0.28898  0.58862  0.26923  Biso   1.000  H 
  H8       1.0000 0.71102  0.41138  0.26923  Biso   1.000  H 
  N7       1.0000 0.31331  0.68948  0.24831  Biso   1.000  N 
  N8       1.0000 0.68669  0.31052  0.24831  Biso   1.000  N 
  H9       1.0000 0.32363  0.56674  0.09350  Biso   1.000  H 
  H10      1.0000 0.67637  0.43326  0.09350  Biso   1.000  H 
  H11      1.0000 0.35901  0.52599  0.06496  Biso   1.000  H 
  H12      1.0000 0.64099  0.47401  0.06496  Biso   1.000  H 
  C37      1.0000 0.22435  0.64900  0.17816  Biso   1.000  C 
  C38      1.0000 0.77565  0.35100  0.17816  Biso   1.000  C 
  H13      1.0000 0.46221  0.61663  0.35193  Biso   1.000  H 
  H14      1.0000 0.53779  0.38337  0.35193  Biso   1.000  H 
  C39      1.0000 0.18093  0.62981  0.15943  Biso   1.000  C 
  C40      1.0000 0.81907  0.37019  0.15943  Biso   1.000  C 
  H15      1.0000 0.42643  0.65710  0.38866  Biso   1.000  H 
  H16      1.0000 0.57357  0.34290  0.38866  Biso   1.000  H 
  C41      1.0000 0.15487  0.58937  0.21955  Biso   1.000  C 
  C42      1.0000 0.84513  0.41063  0.21955  Biso   1.000  C 
  H17      1.0000 0.49555  0.43098  0.30765  Biso   1.000  H 
  H18      1.0000 0.50445  0.56902  0.30765  Biso   1.000  H 
  C43      1.0000 0.17233  0.56870  0.30277  Biso   1.000  C 
  C44      1.0000 0.82767  0.43130  0.30277  Biso   1.000  C 
  H19      1.0000 0.57122  0.62366  0.29210  Biso   1.000  H 
  H20      1.0000 0.42878  0.37634  0.29210  Biso   1.000  H 
  C45      1.0000 0.21569  0.58796  0.32334  Biso   1.000  C 
  C46      1.0000 0.78431  0.41204  0.32334  Biso   1.000  C 
  H21      1.0000 0.61496  0.63319  0.41724  Biso   1.000  H 
  H22      1.0000 0.38504  0.36681  0.41724  Biso   1.000  H 
  N9       1.0000 0.11101  0.56792  0.18474  Biso   1.000  N 
  N10      1.0000 0.88899  0.43208  0.18474  Biso   1.000  N 
  H23      1.0000 0.56308  0.60441  0.00156  Biso   1.000  H 
  H24      1.0000 0.43692  0.39559  0.00156  Biso   1.000  H 
  C47      1.0000 0.08188  0.57733  0.27081  Biso   1.000  C 
  C48      1.0000 0.91812  0.42267  0.27081  Biso   1.000  C 
  H25      1.0000 0.45631  0.55650  0.08286  Biso   1.000  H 
  H26      1.0000 0.54369  0.44350  0.08286  Biso   1.000  H 
  C49      1.0000 0.03911  0.53771  0.29422  Biso   1.000  C 
  C50      1.0000 0.96089  0.46229  0.29422  Biso   1.000  C 
  C51      1.0000 0.39070  0.47218  0.17389  Biso   1.000  C 
  C52      1.0000 0.60930  0.52782  0.17389  Biso   1.000  C 
  C53      1.0000 0.00175  0.53915  0.31424  Biso   1.000  C 
  C54      1.0000 0.99825  0.46085  0.31424  Biso   1.000  C 
  N11      1.0000 0.36416  0.44449  0.10299  Biso   1.000  N 
  N12      1.0000 0.63584  0.55551  0.10299  Biso   1.000  N 
  O5       1.0000 0.00462  0.57839  0.33982  Biso   1.000  O 
  O6       1.0000 0.99538  0.42161  0.33982  Biso   1.000  O 
  H27      1.0000 0.41163  0.50794  0.38585  Biso   1.000  H 
  H28      1.0000 0.58837  0.49206  0.38585  Biso   1.000  H 
  H29      1.0000 0.24386  0.67969  0.12521  Biso   1.000  H 
  H30      1.0000 0.75614  0.32031  0.12521  Biso   1.000  H 
  C55      1.0000 0.53997  0.03487  0.27618  Biso   1.000  C 
  C56      1.0000 0.46003  0.96513  0.27618  Biso   1.000  C 
  H31      1.0000 0.16773  0.64580  0.09273  Biso   1.000  H 
  H32      1.0000 0.83227  0.35420  0.09273  Biso   1.000  H 
  C57      1.0000 0.39203  0.97801  0.36609  Biso   1.000  C 
  C58      1.0000 0.60797  0.02199  0.36609  Biso   1.000  C 
  H33      1.0000 0.15229  0.53749  0.35030  Biso   1.000  H 
  H34      1.0000 0.84771  0.46251  0.35030  Biso   1.000  H 
  H35      1.0000 0.57085  0.06213  0.28183  Biso   1.000  H 
  H36      1.0000 0.42915  0.93787  0.28183  Biso   1.000  H 
  H37      1.0000 0.22809  0.57131  0.39038  Biso   1.000  H 
  H38      1.0000 0.77191  0.42869  0.39038  Biso   1.000  H 
  H39      1.0000 0.37709  0.95381  0.26991  Biso   1.000  H 
  H40      1.0000 0.62291  0.04619  0.26991  Biso   1.000  H 
  H41      1.0000 0.10028  0.54634  0.08901  Biso   1.000  H 
  H42      1.0000 0.89972  0.45366  0.08901  Biso   1.000  H 
  H43      1.0000 0.37043  0.98984  0.39544  Biso   1.000  H 
  H44      1.0000 0.62957  0.01016  0.39544  Biso   1.000  H 
  C59      1.0000 0.07908  0.61024  0.17975  Biso   1.000  C 
  C60      1.0000 0.92092  0.38976  0.17975  Biso   1.000  C 
  H45      1.0000 0.39702  0.96433  0.47857  Biso   1.000  H 
  H46      1.0000 0.60298  0.03567  0.47857  Biso   1.000  H 
  N13      1.0000 0.07698  0.63626  0.10877  Biso   1.000  N 
  N14      1.0000 0.92302  0.36374  0.10877  Biso   1.000  N 
  C61      1.0000 0.35159  0.64120  0.25409  Biso   1.000  C 
  C62      1.0000 0.64841  0.35880  0.25409  Biso   1.000  C 
  H47      1.0000 0.09498  0.59031  0.39169  Biso   1.000  H 
  H48      1.0000 0.90502  0.40969  0.39169  Biso   1.000  H 
  C63      1.0000 0.37560  0.68500  0.24418  Biso   1.000  C 
  C64      1.0000 0.62440  0.31500  0.24418  Biso   1.000  C 
  C65      1.0000 0.96304  0.50137  0.30819  Biso   1.000  C 
  C66      1.0000 0.03696  0.49863  0.30819  Biso   1.000  C 
  C67      1.0000 0.37206  0.61523  0.24410  Biso   1.000  C 
  C68      1.0000 0.62794  0.38477  0.24410  Biso   1.000  C 
  C69      1.0000 0.03167  0.42061  0.39378  Biso   1.000  C 
  C70      1.0000 0.96833  0.57939  0.39378  Biso   1.000  C 
  H49      1.0000 0.93416  0.50208  0.31353  Biso   1.000  H 
  H50      1.0000 0.06584  0.49792  0.31353  Biso   1.000  H 
  H51      1.0000 0.05582  0.43192  0.29663  Biso   1.000  H 
  H52      1.0000 0.94418  0.56808  0.29663  Biso   1.000  H 
  H53      1.0000 0.02267  0.38774  0.42188  Biso   1.000  H 
  H54      1.0000 0.97733  0.61226  0.42188  Biso   1.000  H 
  H55      1.0000 0.04441  0.43948  0.00645  Biso   1.000  H 
  H56      1.0000 0.95559  0.56052  0.00645  Biso   1.000  H 
  C71      1.0000 0.28875  0.64714  0.76110  Biso   1.000  C 
  C72      1.0000 0.71125  0.35286  0.76110  Biso   1.000  C 
  N15      1.0000 0.44799  0.88744  0.65683  Biso   1.000  N 
  N16      1.0000 0.55201  0.11256  0.65683  Biso   1.000  N 
  C73      1.0000 0.30785  0.62235  0.76394  Biso   1.000  C 
  C74      1.0000 0.69215  0.37765  0.76394  Biso   1.000  C 
  C75      1.0000 0.48762  0.91479  0.74078  Biso   1.000  C 
  C76      1.0000 0.51238  0.08521  0.74078  Biso   1.000  C 
  C77      1.0000 0.75760  0.37207  0.75689  Biso   1.000  C 
  C78      1.0000 0.49476  0.95922  0.76224  Biso   1.000  C 
  C79      1.0000 0.50524  0.04078  0.76224  Biso   1.000  C 
  C80      1.0000 0.35324  0.57751  0.65515  Biso   1.000  C 
  C81      1.0000 0.53520  0.99447  0.78278  Biso   1.000  C 
  C82      1.0000 0.46480  0.00553  0.78278  Biso   1.000  C 
  C83      1.0000 0.37342  0.55424  0.63780  Biso   1.000  C 
  O7       1.0000 0.56930  0.98784  0.80970  Biso   1.000  O 
  O8       1.0000 0.43070  0.01216  0.80970  Biso   1.000  O 
  C84      1.0000 0.41279  0.56830  0.70806  Biso   1.000  C 
  H57      1.0000 0.40933  0.70002  0.73670  Biso   1.000  H 
  H58      1.0000 0.59067  0.29998  0.73670  Biso   1.000  H 
  C85      1.0000 0.43170  0.60555  0.79751  Biso   1.000  C 
  C86      1.0000 0.41138  0.62871  0.81677  Biso   1.000  C 
  N17      1.0000 0.43490  0.54629  0.67917  Biso   1.000  N 
  N18      1.0000 0.56510  0.45371  0.67917  Biso   1.000  N 
  C87      1.0000 0.42430  0.50736  0.76484  Biso   1.000  C 
  C88      1.0000 0.57570  0.49264  0.76484  Biso   1.000  C 
  C89      1.0000 0.46305  0.50276  0.78812  Biso   1.000  C 
  C90      1.0000 0.53695  0.49724  0.78812  Biso   1.000  C 
  H59      1.0000 0.43780  0.89939  0.56310  Biso   1.000  H 
  H60      1.0000 0.56220  0.10061  0.56310  Biso   1.000  H 
  C91      1.0000 0.46025  0.46334  0.80837  Biso   1.000  C 
  C92      1.0000 0.53975  0.53666  0.80837  Biso   1.000  C 
  C93      1.0000 0.52183  0.91427  0.65014  Biso   1.000  C 
  C94      1.0000 0.47817  0.08573  0.65014  Biso   1.000  C 
  C95      1.0000 0.49729  0.46106  0.80223  Biso   1.000  C 
  C96      1.0000 0.50271  0.53894  0.80223  Biso   1.000  C 
  N19      1.0000 0.54876  0.91379  0.57956  Biso   1.000  N 
  N20      1.0000 0.45124  0.08621  0.57956  Biso   1.000  N 
  O9       1.0000 0.42043  0.42775  0.83419  Biso   1.000  O 
  O10      1.0000 0.57957  0.57225  0.83419  Biso   1.000  O 
  H61      1.0000 0.48647  0.90167  0.86260  Biso   1.000  H 
  H62      1.0000 0.51353  0.09833  0.86260  Biso   1.000  H 
  C97      1.0000 0.58186  0.61009  0.88889  Biso   1.000  C 
  C98      1.0000 0.41814  0.38991  0.88889  Biso   1.000  C 
  C99      1.0000 0.35584  0.70912  0.73953  Biso   1.000  C 
  C100     1.0000 0.64416  0.29088  0.73953  Biso   1.000  C 
  H63      1.0000 0.28898  0.58862  0.76923  Biso   1.000  H 
  H64      1.0000 0.71102  0.41138  0.76923  Biso   1.000  H 
  N21      1.0000 0.31331  0.68948  0.74831  Biso   1.000  N 
  N22      1.0000 0.68669  0.31052  0.74831  Biso   1.000  N 
  H65      1.0000 0.32363  0.56674  0.59350  Biso   1.000  H 
  H66      1.0000 0.35901  0.52599  0.56496  Biso   1.000  H 
  C101     1.0000 0.77565  0.35100  0.67816  Biso   1.000  C 
  H67      1.0000 0.46221  0.61663  0.85193  Biso   1.000  H 
  C102     1.0000 0.81907  0.37019  0.65943  Biso   1.000  C 
  H68      1.0000 0.42643  0.65710  0.88867  Biso   1.000  H 
  C103     1.0000 0.84513  0.41063  0.71955  Biso   1.000  C 
  H69      1.0000 0.49555  0.43098  0.80765  Biso   1.000  H 
  H70      1.0000 0.50445  0.56902  0.80765  Biso   1.000  H 
  C104     1.0000 0.82767  0.43130  0.80276  Biso   1.000  C 
  H71      1.0000 0.57122  0.62366  0.79210  Biso   1.000  H 
  H72      1.0000 0.42878  0.37634  0.79210  Biso   1.000  H 
  C105     1.0000 0.78431  0.41204  0.82334  Biso   1.000  C 
  H73      1.0000 0.61496  0.63319  0.91724  Biso   1.000  H 
  H74      1.0000 0.38504  0.36681  0.91724  Biso   1.000  H 
  N23      1.0000 0.11101  0.56792  0.68475  Biso   1.000  N 
  N24      1.0000 0.88899  0.43208  0.68475  Biso   1.000  N 
  H75      1.0000 0.56308  0.60441  0.50156  Biso   1.000  H 
  H76      1.0000 0.43692  0.39559  0.50156  Biso   1.000  H 
  C106     1.0000 0.08188  0.57733  0.77080  Biso   1.000  C 
  C107     1.0000 0.91812  0.42267  0.77080  Biso   1.000  C 
  H77      1.0000 0.45631  0.55650  0.58286  Biso   1.000  H 
  H78      1.0000 0.54369  0.44350  0.58286  Biso   1.000  H 
  C108     1.0000 0.03911  0.53771  0.79422  Biso   1.000  C 
  C109     1.0000 0.96089  0.46229  0.79422  Biso   1.000  C 
  C110     1.0000 0.39070  0.47218  0.67390  Biso   1.000  C 
  C111     1.0000 0.60930  0.52782  0.67390  Biso   1.000  C 
  C112     1.0000 0.00175  0.53915  0.81424  Biso   1.000  C 
  C113     1.0000 0.99825  0.46085  0.81424  Biso   1.000  C 
  N25      1.0000 0.36416  0.44449  0.60299  Biso   1.000  N 
  N26      1.0000 0.63584  0.55551  0.60299  Biso   1.000  N 
  O11      1.0000 0.00462  0.57839  0.83982  Biso   1.000  O 
  O12      1.0000 0.99538  0.42161  0.83982  Biso   1.000  O 
  H79      1.0000 0.41163  0.50794  0.88585  Biso   1.000  H 
  H80      1.0000 0.58837  0.49206  0.88585  Biso   1.000  H 
  H81      1.0000 0.75614  0.32031  0.62521  Biso   1.000  H 
  C114     1.0000 0.53997  0.03487  0.77618  Biso   1.000  C 
  C115     1.0000 0.46003  0.96513  0.77618  Biso   1.000  C 
  H82      1.0000 0.83227  0.35420  0.59273  Biso   1.000  H 
  C116     1.0000 0.39203  0.97801  0.86609  Biso   1.000  C 
  C117     1.0000 0.60797  0.02199  0.86609  Biso   1.000  C 
  H83      1.0000 0.84771  0.46251  0.85030  Biso   1.000  H 
  H84      1.0000 0.57085  0.06213  0.78183  Biso   1.000  H 
  H85      1.0000 0.42915  0.93787  0.78183  Biso   1.000  H 
  H86      1.0000 0.77191  0.42869  0.89037  Biso   1.000  H 
  H87      1.0000 0.37709  0.95381  0.76991  Biso   1.000  H 
  H88      1.0000 0.62291  0.04619  0.76991  Biso   1.000  H 
  H89      1.0000 0.10028  0.54634  0.58901  Biso   1.000  H 
  H90      1.0000 0.89972  0.45366  0.58901  Biso   1.000  H 
  H91      1.0000 0.37043  0.98984  0.89544  Biso   1.000  H 
  H92      1.0000 0.62957  0.01016  0.89544  Biso   1.000  H 
  C118     1.0000 0.07908  0.61024  0.67975  Biso   1.000  C 
  C119     1.0000 0.92092  0.38976  0.67975  Biso   1.000  C 
  H93      1.0000 0.39702  0.96433  0.97856  Biso   1.000  H 
  H94      1.0000 0.60298  0.03567  0.97856  Biso   1.000  H 
  N27      1.0000 0.07698  0.63626  0.60877  Biso   1.000  N 
  N28      1.0000 0.92302  0.36374  0.60877  Biso   1.000  N 
  C120     1.0000 0.35159  0.64120  0.75409  Biso   1.000  C 
  C121     1.0000 0.64841  0.35880  0.75409  Biso   1.000  C 
  H95      1.0000 0.09498  0.59031  0.89169  Biso   1.000  H 
  H96      1.0000 0.90502  0.40969  0.89169  Biso   1.000  H 
  C122     1.0000 0.37560  0.68500  0.74417  Biso   1.000  C 
  C123     1.0000 0.62440  0.31500  0.74417  Biso   1.000  C 
  C124     1.0000 0.96304  0.50137  0.80819  Biso   1.000  C 
  C125     1.0000 0.03696  0.49863  0.80819  Biso   1.000  C 
  C126     1.0000 0.37206  0.61523  0.74411  Biso   1.000  C 
  C127     1.0000 0.03167  0.42061  0.89378  Biso   1.000  C 
  C128     1.0000 0.96833  0.57939  0.89378  Biso   1.000  C 
  H97      1.0000 0.93416  0.50208  0.81353  Biso   1.000  H 
  H98      1.0000 0.06584  0.49792  0.81353  Biso   1.000  H 
  H99      1.0000 0.05582  0.43192  0.79663  Biso   1.000  H 
  H100     1.0000 0.94418  0.56808  0.79663  Biso   1.000  H 
  H101     1.0000 0.02267  0.38774  0.92188  Biso   1.000  H 
  H102     1.0000 0.97733  0.61226  0.92188  Biso   1.000  H 
  H103     1.0000 0.04441  0.43948  0.50645  Biso   1.000  H 
  H104     1.0000 0.95559  0.56052  0.50645  Biso   1.000  H 
  C129     1.0000 0.42728  0.78420  0.11416  Biso   1.000  C 
  C130     1.0000 0.39076  0.75930  0.20309  Biso   1.000  C 
  Sn1      1.0000 0.36976  0.77733  0.27978  Biso   1.000  C
  Sn2      1.0000 0.38569  0.82110  0.26694  Biso   1.000  C
  C131     1.0000 0.42223  0.84573  0.17759  Biso   1.000  C 
  C132     1.0000 0.44300  0.82737  0.10138  Biso   1.000  C 
  H105     1.0000 0.44334  0.77000  0.05512  Biso   1.000  H 
  Te1      1.0000 0.33333  0.75200  0.36820  Biso   1.000  O
  Te2      1.0000 0.36532  0.83992  0.34232  Biso   1.000  O
  H106     1.0000 0.47126  0.84666  0.03244  Biso   1.000  H 
  Mg1      1.0000 0.31676  0.79223  0.44922  Biso   1.000  Mg
  C133     1.0000 0.63384  0.20907  0.79443  Biso   1.000  C 
  C134     1.0000 0.62601  0.23954  0.72973  Biso   1.000  C 
  Sn3      1.0000 0.58959  0.22779  0.64001  Biso   1.000  C
  Sn4      1.0000 0.56052  0.18470  0.61482  Biso   1.000  C
  C135     1.0000 0.56863  0.15445  0.68015  Biso   1.000  C 
  C136     1.0000 0.60518  0.16656  0.76970  Biso   1.000  C 
  H107     1.0000 0.66211  0.21844  0.86379  Biso   1.000  H 
  Te3      1.0000 0.58225  0.25864  0.57618  Biso   1.000  O
  Te4      1.0000 0.52386  0.17207  0.52567  Biso   1.000  O
  H108     1.0000 0.61123  0.14296  0.81987  Biso   1.000  H 
  Mg2      1.0000 0.52784  0.22581  0.46316  Biso   1.000  Mg
  C137     1.0000 0.63384  0.20907  0.29443  Biso   1.000  C 
  C138     1.0000 0.62601  0.23954  0.22973  Biso   1.000  C 
  Sn5      1.0000 0.58959  0.22779  0.14001  Biso   1.000  C
  Sn6      1.0000 0.56052  0.18470  0.11482  Biso   1.000  C
  C139     1.0000 0.56863  0.15445  0.18015  Biso   1.000  C 
  C140     1.0000 0.60518  0.16656  0.26970  Biso   1.000  C 
  H109     1.0000 0.66211  0.21844  0.36379  Biso   1.000  H 
  Te5      1.0000 0.58225  0.25864  0.07618  Biso   1.000  O
  Te6      1.0000 0.52386  0.17207  0.02567  Biso   1.000  O
  H110     1.0000 0.61123  0.14296  0.31987  Biso   1.000  H 
  Mg3      1.0000 0.52784  0.22581  0.96316  Biso   1.000  Mg
  C141     1.0000 0.21522  0.64906  0.65850  Biso   1.000  C 
  C142     1.0000 0.23875  0.63546  0.74578  Biso   1.000  C 
  Sn7      1.0000 0.21914  0.59599  0.81915  Biso   1.000  C
  Sn8      1.0000 0.17514  0.56970  0.80464  Biso   1.000  C
  C143     1.0000 0.15188  0.58358  0.71696  Biso   1.000  C 
  C144     1.0000 0.17182  0.62315  0.64407  Biso   1.000  C 
  H111     1.0000 0.23065  0.67966  0.60202  Biso   1.000  H 
  Te7      1.0000 0.24312  0.58290  0.90596  Biso   1.000  O
  Te8      1.0000 0.15474  0.53010  0.87671  Biso   1.000  O
  H112     1.0000 0.15360  0.63366  0.57641  Biso   1.000  H 
  Mg4      1.0000 0.20098  0.52628  0.98247  Biso   1.000  Mg
  C145     1.0000 0.56789  0.38461  0.81178  Biso   1.000  C 
  C146     1.0000 0.58180  0.42328  0.73588  Biso   1.000  C 
  Sn9      1.0000 0.62023  0.44302  0.65454  Biso   1.000  C
  Sn10     1.0000 0.64512  0.42361  0.64926  Biso   1.000  C
  C147     1.0000 0.63091  0.38491  0.72547  Biso   1.000  C 
  C148     1.0000 0.59241  0.36543  0.80657  Biso   1.000  C 
  H113     1.0000 0.53810  0.36953  0.87446  Biso   1.000  H 
  Te9      1.0000 0.63366  0.48165  0.57941  Biso   1.000  O
  Te10     1.0000 0.68364  0.44264  0.56875  Biso   1.000  O
  H114     1.0000 0.58164  0.33548  0.86523  Biso   1.000  H 
  Mg5      1.0000 0.68845  0.49522  0.48487  Biso   1.000  Mg
  C149     1.0000 0.42728  0.78420  0.61416  Biso   1.000  C 
  C150     1.0000 0.39076  0.75930  0.70309  Biso   1.000  C 
  Sn11     1.0000 0.36976  0.77733  0.77978  Biso   1.000  C
  Sn12     1.0000 0.38569  0.82110  0.76694  Biso   1.000  C
  C151     1.0000 0.42223  0.84573  0.67759  Biso   1.000  C 
  C152     1.0000 0.44300  0.82737  0.60138  Biso   1.000  C 
  H115     1.0000 0.44334  0.77000  0.55512  Biso   1.000  H 
  Te11     1.0000 0.33333  0.75200  0.86820  Biso   1.000  O
  Te12     1.0000 0.36532  0.83992  0.84232  Biso   1.000  O
  H116     1.0000 0.47126  0.84666  0.53244  Biso   1.000  H 
  Mg6      1.0000 0.31676  0.79223  0.94922  Biso   1.000  Mg
