data_image0
_cell_length_a       36.875
_cell_length_b       36.875
_cell_length_c       8.2088
_cell_angle_alpha    90
_cell_angle_beta     90
_cell_angle_gamma    120

_symmetry_space_group_name_H-M    "P 1"
_symmetry_int_tables_number       1

loop_
  _symmetry_equiv_pos_as_xyz
  'x, y, z'

loop_
  _atom_site_label
  _atom_site_occupancy
  _atom_site_fract_x
  _atom_site_fract_y
  _atom_site_fract_z
  _atom_site_thermal_displace_type
  _atom_site_B_iso_or_equiv
  _atom_site_type_symbol
  C1       1.0000 0.28875  0.64714  0.26110  Biso   1.000  C 
  C2       1.0000 0.71125  0.35286  0.26110  Biso   1.000  C 
  N1       1.0000 0.44799  0.88744  0.15683  Biso   1.000  N 
  N2       1.0000 0.55201  0.11256  0.15683  Biso   1.000  N 
  C3       1.0000 0.30785  0.62235  0.26394  Biso   1.000  C 
  C4       1.0000 0.69215  0.37765  0.26394  Biso   1.000  C 
  C5       1.0000 0.48762  0.91479  0.24078  Biso   1.000  C 
  C6       1.0000 0.51238  0.08521  0.24078  Biso   1.000  C 
  C7       1.0000 0.49476  0.95922  0.26224  Biso   1.000  C 
  C8       1.0000 0.50524  0.04078  0.26224  Biso   1.000  C 
  C9       1.0000 0.53520  0.99447  0.28279  Biso   1.000  C 
  C10      1.0000 0.46480  0.00553  0.28279  Biso   1.000  C 
  O1       1.0000 0.56930  0.98784  0.30969  Biso   1.000  O 
  O2       1.0000 0.43070  0.01216  0.30969  Biso   1.000  O 
  H1       1.0000 0.40933  0.70002  0.23670  Biso   1.000  H 
  H2       1.0000 0.59067  0.29998  0.23670  Biso   1.000  H 
  N3       1.0000 0.43490  0.54629  0.17917  Biso   1.000  N 
  N4       1.0000 0.56510  0.45371  0.17917  Biso   1.000  N 
  C11      1.0000 0.42430  0.50736  0.26484  Biso   1.000  C 
  C12      1.0000 0.57570  0.49264  0.26484  Biso   1.000  C 
  C13      1.0000 0.46305  0.50276  0.28811  Biso   1.000  C 
  C14      1.0000 0.53695  0.49724  0.28811  Biso   1.000  C 
  H3       1.0000 0.43780  0.89939  0.06310  Biso   1.000  H 
  H4       1.0000 0.56220  0.10061  0.06310  Biso   1.000  H 
  C15      1.0000 0.46025  0.46334  0.30837  Biso   1.000  C 
  C16      1.0000 0.53975  0.53666  0.30837  Biso   1.000  C 
  C17      1.0000 0.52183  0.91427  0.15013  Biso   1.000  C 
  C18      1.0000 0.47817  0.08573  0.15013  Biso   1.000  C 
  C19      1.0000 0.49729  0.46106  0.30223  Biso   1.000  C 
  C20      1.0000 0.50271  0.53894  0.30223  Biso   1.000  C 
  N5       1.0000 0.54876  0.91379  0.07956  Biso   1.000  N 
  N6       1.0000 0.45124  0.08621  0.07956  Biso   1.000  N 
  O3       1.0000 0.42043  0.42775  0.33419  Biso   1.000  O 
  O4       1.0000 0.57957  0.57225  0.33419  Biso   1.000  O 
  H5       1.0000 0.48647  0.90167  0.36260  Biso   1.000  H 
  H6       1.0000 0.51353  0.09833  0.36260  Biso   1.000  H 
  C21      1.0000 0.58186  0.61009  0.38888  Biso   1.000  C 
  C22      1.0000 0.41814  0.38991  0.38888  Biso   1.000  C 
  C23      1.0000 0.35584  0.70912  0.23953  Biso   1.000  C 
  C24      1.0000 0.64416  0.29088  0.23953  Biso   1.000  C 
  H7       1.0000 0.28898  0.58862  0.26923  Biso   1.000  H 
  H8       1.0000 0.71102  0.41138  0.26923  Biso   1.000  H 
  N7       1.0000 0.31331  0.68948  0.24831  Biso   1.000  N 
  N8       1.0000 0.68669  0.31052  0.24831  Biso   1.000  N 
  H9       1.0000 0.49555  0.43098  0.30765  Biso   1.000  H 
  H10      1.0000 0.50445  0.56902  0.30765  Biso   1.000  H 
  H11      1.0000 0.57122  0.62366  0.29210  Biso   1.000  H 
  H12      1.0000 0.42878  0.37634  0.29210  Biso   1.000  H 
  H13      1.0000 0.61496  0.63319  0.41724  Biso   1.000  H 
  H14      1.0000 0.38504  0.36681  0.41724  Biso   1.000  H 
  N9       1.0000 0.11101  0.56792  0.18474  Biso   1.000  N 
  N10      1.0000 0.88899  0.43208  0.18474  Biso   1.000  N 
  H15      1.0000 0.56308  0.60441  0.00156  Biso   1.000  H 
  H16      1.0000 0.43692  0.39559  0.00156  Biso   1.000  H 
  C25      1.0000 0.08188  0.57733  0.27081  Biso   1.000  C 
  C26      1.0000 0.91812  0.42267  0.27081  Biso   1.000  C 
  H17      1.0000 0.45631  0.55650  0.08286  Biso   1.000  H 
  H18      1.0000 0.54369  0.44350  0.08286  Biso   1.000  H 
  C27      1.0000 0.03911  0.53771  0.29422  Biso   1.000  C 
  C28      1.0000 0.96089  0.46229  0.29422  Biso   1.000  C 
  C29      1.0000 0.39070  0.47218  0.17389  Biso   1.000  C 
  C30      1.0000 0.60930  0.52782  0.17389  Biso   1.000  C 
  C31      1.0000 0.00175  0.53915  0.31424  Biso   1.000  C 
  C32      1.0000 0.99825  0.46085  0.31424  Biso   1.000  C 
  N11      1.0000 0.36416  0.44449  0.10299  Biso   1.000  N 
  N12      1.0000 0.63584  0.55551  0.10299  Biso   1.000  N 
  O5       1.0000 0.00462  0.57839  0.33982  Biso   1.000  O 
  O6       1.0000 0.99538  0.42161  0.33982  Biso   1.000  O 
  H19      1.0000 0.41163  0.50794  0.38585  Biso   1.000  H 
  H20      1.0000 0.58837  0.49206  0.38585  Biso   1.000  H 
  C33      1.0000 0.53997  0.03487  0.27618  Biso   1.000  C 
  C34      1.0000 0.46003  0.96513  0.27618  Biso   1.000  C 
  C35      1.0000 0.39203  0.97801  0.36609  Biso   1.000  C 
  C36      1.0000 0.60797  0.02199  0.36609  Biso   1.000  C 
  H21      1.0000 0.57085  0.06213  0.28183  Biso   1.000  H 
  H22      1.0000 0.42915  0.93787  0.28183  Biso   1.000  H 
  H23      1.0000 0.37709  0.95381  0.26991  Biso   1.000  H 
  H24      1.0000 0.62291  0.04619  0.26991  Biso   1.000  H 
  H25      1.0000 0.10028  0.54634  0.08901  Biso   1.000  H 
  H26      1.0000 0.89972  0.45366  0.08901  Biso   1.000  H 
  H27      1.0000 0.37043  0.98984  0.39544  Biso   1.000  H 
  H28      1.0000 0.62957  0.01016  0.39544  Biso   1.000  H 
  C37      1.0000 0.07908  0.61024  0.17975  Biso   1.000  C 
  C38      1.0000 0.92092  0.38976  0.17975  Biso   1.000  C 
  H29      1.0000 0.39702  0.96433  0.47857  Biso   1.000  H 
  H30      1.0000 0.60298  0.03567  0.47857  Biso   1.000  H 
  N13      1.0000 0.07698  0.63626  0.10877  Biso   1.000  N 
  N14      1.0000 0.92302  0.36374  0.10877  Biso   1.000  N 
  C39      1.0000 0.35159  0.64120  0.25409  Biso   1.000  C 
  C40      1.0000 0.64841  0.35880  0.25409  Biso   1.000  C 
  H31      1.0000 0.09498  0.59031  0.39169  Biso   1.000  H 
  H32      1.0000 0.90502  0.40969  0.39169  Biso   1.000  H 
  C41      1.0000 0.37560  0.68500  0.24418  Biso   1.000  C 
  C42      1.0000 0.62440  0.31500  0.24418  Biso   1.000  C 
  C43      1.0000 0.96304  0.50137  0.30819  Biso   1.000  C 
  C44      1.0000 0.03696  0.49863  0.30819  Biso   1.000  C 
  C45      1.0000 0.03167  0.42061  0.39378  Biso   1.000  C 
  C46      1.0000 0.96833  0.57939  0.39378  Biso   1.000  C 
  H33      1.0000 0.93416  0.50208  0.31353  Biso   1.000  H 
  H34      1.0000 0.06584  0.49792  0.31353  Biso   1.000  H 
  H35      1.0000 0.05582  0.43192  0.29663  Biso   1.000  H 
  H36      1.0000 0.94418  0.56808  0.29663  Biso   1.000  H 
  H37      1.0000 0.02267  0.38774  0.42188  Biso   1.000  H 
  H38      1.0000 0.97733  0.61226  0.42188  Biso   1.000  H 
  H39      1.0000 0.04441  0.43948  0.00645  Biso   1.000  H 
  H40      1.0000 0.95559  0.56052  0.00645  Biso   1.000  H 
  C47      1.0000 0.28875  0.64714  0.76110  Biso   1.000  C 
  C48      1.0000 0.71125  0.35286  0.76110  Biso   1.000  C 
  N15      1.0000 0.44799  0.88744  0.65683  Biso   1.000  N 
  N16      1.0000 0.55201  0.11256  0.65683  Biso   1.000  N 
  C49      1.0000 0.30785  0.62235  0.76394  Biso   1.000  C 
  C50      1.0000 0.69215  0.37765  0.76394  Biso   1.000  C 
  C51      1.0000 0.48762  0.91479  0.74078  Biso   1.000  C 
  C52      1.0000 0.51238  0.08521  0.74078  Biso   1.000  C 
  C53      1.0000 0.49476  0.95922  0.76224  Biso   1.000  C 
  C54      1.0000 0.50524  0.04078  0.76224  Biso   1.000  C 
  C55      1.0000 0.53520  0.99447  0.78278  Biso   1.000  C 
  C56      1.0000 0.46480  0.00553  0.78278  Biso   1.000  C 
  O7       1.0000 0.56930  0.98784  0.80970  Biso   1.000  O 
  O8       1.0000 0.43070  0.01216  0.80970  Biso   1.000  O 
  H41      1.0000 0.40933  0.70002  0.73670  Biso   1.000  H 
  H42      1.0000 0.59067  0.29998  0.73670  Biso   1.000  H 
  N17      1.0000 0.43490  0.54629  0.67917  Biso   1.000  N 
  N18      1.0000 0.56510  0.45371  0.67917  Biso   1.000  N 
  C57      1.0000 0.42430  0.50736  0.76484  Biso   1.000  C 
  C58      1.0000 0.57570  0.49264  0.76484  Biso   1.000  C 
  C59      1.0000 0.46305  0.50276  0.78812  Biso   1.000  C 
  C60      1.0000 0.53695  0.49724  0.78812  Biso   1.000  C 
  H43      1.0000 0.43780  0.89939  0.56310  Biso   1.000  H 
  H44      1.0000 0.56220  0.10061  0.56310  Biso   1.000  H 
  C61      1.0000 0.46025  0.46334  0.80837  Biso   1.000  C 
  C62      1.0000 0.53975  0.53666  0.80837  Biso   1.000  C 
  C63      1.0000 0.52183  0.91427  0.65014  Biso   1.000  C 
  C64      1.0000 0.47817  0.08573  0.65014  Biso   1.000  C 
  C65      1.0000 0.49729  0.46106  0.80223  Biso   1.000  C 
  C66      1.0000 0.50271  0.53894  0.80223  Biso   1.000  C 
  N19      1.0000 0.54876  0.91379  0.57956  Biso   1.000  N 
  N20      1.0000 0.45124  0.08621  0.57956  Biso   1.000  N 
  O9       1.0000 0.42043  0.42775  0.83419  Biso   1.000  O 
  O10      1.0000 0.57957  0.57225  0.83419  Biso   1.000  O 
  H45      1.0000 0.48647  0.90167  0.86260  Biso   1.000  H 
  H46      1.0000 0.51353  0.09833  0.86260  Biso   1.000  H 
  C67      1.0000 0.58186  0.61009  0.88889  Biso   1.000  C 
  C68      1.0000 0.41814  0.38991  0.88889  Biso   1.000  C 
  C69      1.0000 0.35584  0.70912  0.73953  Biso   1.000  C 
  C70      1.0000 0.64416  0.29088  0.73953  Biso   1.000  C 
  H47      1.0000 0.28898  0.58862  0.76923  Biso   1.000  H 
  H48      1.0000 0.71102  0.41138  0.76923  Biso   1.000  H 
  N21      1.0000 0.31331  0.68948  0.74831  Biso   1.000  N 
  N22      1.0000 0.68669  0.31052  0.74831  Biso   1.000  N 
  H49      1.0000 0.49555  0.43098  0.80765  Biso   1.000  H 
  H50      1.0000 0.50445  0.56902  0.80765  Biso   1.000  H 
  H51      1.0000 0.57122  0.62366  0.79210  Biso   1.000  H 
  H52      1.0000 0.42878  0.37634  0.79210  Biso   1.000  H 
  H53      1.0000 0.61496  0.63319  0.91724  Biso   1.000  H 
  H54      1.0000 0.38504  0.36681  0.91724  Biso   1.000  H 
  N23      1.0000 0.11101  0.56792  0.68475  Biso   1.000  N 
  N24      1.0000 0.88899  0.43208  0.68475  Biso   1.000  N 
  H55      1.0000 0.56308  0.60441  0.50156  Biso   1.000  H 
  H56      1.0000 0.43692  0.39559  0.50156  Biso   1.000  H 
  C71      1.0000 0.08188  0.57733  0.77080  Biso   1.000  C 
  C72      1.0000 0.91812  0.42267  0.77080  Biso   1.000  C 
  H57      1.0000 0.45631  0.55650  0.58286  Biso   1.000  H 
  H58      1.0000 0.54369  0.44350  0.58286  Biso   1.000  H 
  C73      1.0000 0.03911  0.53771  0.79422  Biso   1.000  C 
  C74      1.0000 0.96089  0.46229  0.79422  Biso   1.000  C 
  C75      1.0000 0.39070  0.47218  0.67390  Biso   1.000  C 
  C76      1.0000 0.60930  0.52782  0.67390  Biso   1.000  C 
  C77      1.0000 0.00175  0.53915  0.81424  Biso   1.000  C 
  C78      1.0000 0.99825  0.46085  0.81424  Biso   1.000  C 
  N25      1.0000 0.36416  0.44449  0.60299  Biso   1.000  N 
  N26      1.0000 0.63584  0.55551  0.60299  Biso   1.000  N 
  O11      1.0000 0.00462  0.57839  0.83982  Biso   1.000  O 
  O12      1.0000 0.99538  0.42161  0.83982  Biso   1.000  O 
  H59      1.0000 0.41163  0.50794  0.88585  Biso   1.000  H 
  H60      1.0000 0.58837  0.49206  0.88585  Biso   1.000  H 
  C79      1.0000 0.53997  0.03487  0.77618  Biso   1.000  C 
  C80      1.0000 0.46003  0.96513  0.77618  Biso   1.000  C 
  C81      1.0000 0.39203  0.97801  0.86609  Biso   1.000  C 
  C82      1.0000 0.60797  0.02199  0.86609  Biso   1.000  C 
  H61      1.0000 0.57085  0.06213  0.78183  Biso   1.000  H 
  H62      1.0000 0.42915  0.93787  0.78183  Biso   1.000  H 
  H63      1.0000 0.37709  0.95381  0.76991  Biso   1.000  H 
  H64      1.0000 0.62291  0.04619  0.76991  Biso   1.000  H 
  H65      1.0000 0.10028  0.54634  0.58901  Biso   1.000  H 
  H66      1.0000 0.89972  0.45366  0.58901  Biso   1.000  H 
  H67      1.0000 0.37043  0.98984  0.89544  Biso   1.000  H 
  H68      1.0000 0.62957  0.01016  0.89544  Biso   1.000  H 
  C83      1.0000 0.07908  0.61024  0.67975  Biso   1.000  C 
  C84      1.0000 0.92092  0.38976  0.67975  Biso   1.000  C 
  H69      1.0000 0.39702  0.96433  0.97856  Biso   1.000  H 
  H70      1.0000 0.60298  0.03567  0.97856  Biso   1.000  H 
  N27      1.0000 0.07698  0.63626  0.60877  Biso   1.000  N 
  N28      1.0000 0.92302  0.36374  0.60877  Biso   1.000  N 
  C85      1.0000 0.35159  0.64120  0.75409  Biso   1.000  C 
  C86      1.0000 0.64841  0.35880  0.75409  Biso   1.000  C 
  H71      1.0000 0.09498  0.59031  0.89169  Biso   1.000  H 
  H72      1.0000 0.90502  0.40969  0.89169  Biso   1.000  H 
  C87      1.0000 0.37560  0.68500  0.74417  Biso   1.000  C 
  C88      1.0000 0.62440  0.31500  0.74417  Biso   1.000  C 
  C89      1.0000 0.96304  0.50137  0.80819  Biso   1.000  C 
  C90      1.0000 0.03696  0.49863  0.80819  Biso   1.000  C 
  C91      1.0000 0.03167  0.42061  0.89378  Biso   1.000  C 
  C92      1.0000 0.96833  0.57939  0.89378  Biso   1.000  C 
  H73      1.0000 0.93416  0.50208  0.81353  Biso   1.000  H 
  H74      1.0000 0.06584  0.49792  0.81353  Biso   1.000  H 
  H75      1.0000 0.05582  0.43192  0.79663  Biso   1.000  H 
  H76      1.0000 0.94418  0.56808  0.79663  Biso   1.000  H 
  H77      1.0000 0.02267  0.38774  0.92188  Biso   1.000  H 
  H78      1.0000 0.97733  0.61226  0.92188  Biso   1.000  H 
  H79      1.0000 0.04441  0.43948  0.50645  Biso   1.000  H 
  H80      1.0000 0.95559  0.56052  0.50645  Biso   1.000  H 
  C93      1.0000 0.43211  0.61539  0.31178  Biso   1.000  C 
  C94      1.0000 0.41820  0.57672  0.23589  Biso   1.000  C 
  Sn1      1.0000 0.37977  0.55698  0.15454  Biso   1.000  C
  Sn2      1.0000 0.35488  0.57639  0.14926  Biso   1.000  C
  C95      1.0000 0.36909  0.61509  0.22546  Biso   1.000  C 
  C96      1.0000 0.40759  0.63457  0.30657  Biso   1.000  C 
  H81      1.0000 0.46190  0.63047  0.37446  Biso   1.000  H 
  Te1      1.0000 0.36634  0.51835  0.07942  Biso   1.000  O
  Te2      1.0000 0.31636  0.55736  0.06875  Biso   1.000  O
  H82      1.0000 0.41836  0.66452  0.36522  Biso   1.000  H 
  Mg1      1.0000 0.31155  0.50478  0.98488  Biso   1.000  Mg
  C97      1.0000 0.64632  0.43135  0.13482  Biso   1.000  C 
  C98      1.0000 0.63478  0.39542  0.22761  Biso   1.000  C 
  Sn3      1.0000 0.59659  0.37595  0.31067  Biso   1.000  C
  Sn4      1.0000 0.56952  0.39284  0.30038  Biso   1.000  C
  C99      1.0000 0.58134  0.42878  0.20714  Biso   1.000  C 
  C100     1.0000 0.61963  0.44802  0.12455  Biso   1.000  C 
  H83      1.0000 0.67593  0.44622  0.07085  Biso   1.000  H 
  Te3      1.0000 0.58556  0.34009  0.40288  Biso   1.000  O
  Te4      1.0000 0.53117  0.37401  0.38212  Biso   1.000  O
  H84      1.0000 0.62854  0.47582  0.05263  Biso   1.000  H 
  Mg2      1.0000 0.53005  0.32569  0.49228  Biso   1.000  Mg
  C101     1.0000 0.18160  0.56787  0.31601  Biso   1.000  C 
  C102     1.0000 0.15767  0.58363  0.24671  Biso   1.000  C 
  Sn5      1.0000 0.17725  0.62333  0.17519  Biso   1.000  C
  Sn6      1.0000 0.22161  0.64762  0.17317  Biso   1.000  C
  C103     1.0000 0.24527  0.63156  0.24272  Biso   1.000  C 
  C104     1.0000 0.22536  0.59180  0.31401  Biso   1.000  C 
  H85      1.0000 0.16620  0.53710  0.37109  Biso   1.000  H 
  Te5      1.0000 0.15287  0.63861  0.10656  Biso   1.000  O
  Te6      1.0000 0.24198  0.68739  0.10244  Biso   1.000  O
  H86      1.0000 0.24390  0.57959  0.36756  Biso   1.000  H 
  Mg3      1.0000 0.19513  0.69457  0.02462  Biso   1.000  Mg
  C105     1.0000 0.79498  0.42092  0.33353  Biso   1.000  C 
  C106     1.0000 0.76329  0.38273  0.27267  Biso   1.000  C 
  Sn7      1.0000 0.77338  0.35648  0.18508  Biso   1.000  C
  Sn8      1.0000 0.81601  0.36878  0.15816  Biso   1.000  C
  C107     1.0000 0.84748  0.40704  0.21964  Biso   1.000  C 
  C108     1.0000 0.83704  0.43307  0.30708  Biso   1.000  C 
  H87      1.0000 0.78690  0.44105  0.40125  Biso   1.000  H 
  Te7      1.0000 0.74132  0.31843  0.12509  Biso   1.000  O
  Te8      1.0000 0.82697  0.34314  0.07108  Biso   1.000  O
  H88      1.0000 0.86158  0.46262  0.35427  Biso   1.000  H 
  Mg4      1.0000 0.77205  0.29427  0.01371  Biso   1.000  Mg
  C109     1.0000 0.37741  0.81444  0.27660  Biso   1.000  C 
  C110     1.0000 0.41679  0.83984  0.20692  Biso   1.000  C 
  Sn9      1.0000 0.43810  0.82187  0.13233  Biso   1.000  C
  Sn10     1.0000 0.41955  0.77764  0.12757  Biso   1.000  C
  C111     1.0000 0.38013  0.75251  0.19753  Biso   1.000  C 
  C112     1.0000 0.35909  0.77082  0.27190  Biso   1.000  C 
  H89      1.0000 0.36111  0.82861  0.33406  Biso   1.000  H 
  Te9      1.0000 0.47742  0.84770  0.06337  Biso   1.000  O
  Te10     1.0000 0.44015  0.75886  0.05375  Biso   1.000  O
  H90      1.0000 0.32858  0.75115  0.32574  Biso   1.000  H 
  Mg5      1.0000 0.49316  0.80732  0.97672  Biso   1.000  Mg
  C113     1.0000 0.63384  0.20907  0.29443  Biso   1.000  C 
  C114     1.0000 0.62601  0.23954  0.22973  Biso   1.000  C 
  Sn11     1.0000 0.58959  0.22779  0.14001  Biso   1.000  C
  Sn12     1.0000 0.56052  0.18470  0.11482  Biso   1.000  C
  C115     1.0000 0.56863  0.15445  0.18015  Biso   1.000  C 
  C116     1.0000 0.60518  0.16656  0.26970  Biso   1.000  C 
  H91      1.0000 0.66211  0.21844  0.36379  Biso   1.000  H 
  Te11     1.0000 0.58225  0.25864  0.07618  Biso   1.000  O
  Te12     1.0000 0.52386  0.17207  0.02567  Biso   1.000  O
  H92      1.0000 0.61123  0.14296  0.31987  Biso   1.000  H 
  Mg6      1.0000 0.52784  0.22581  0.96316  Biso   1.000  Mg
  C117     1.0000 0.35368  0.56865  0.63482  Biso   1.000  C 
  C118     1.0000 0.36522  0.60458  0.72761  Biso   1.000  C 
  Sn13     1.0000 0.40341  0.62405  0.81067  Biso   1.000  C
  Sn14     1.0000 0.43048  0.60716  0.80038  Biso   1.000  C
  C119     1.0000 0.41866  0.57122  0.70714  Biso   1.000  C 
  C120     1.0000 0.38037  0.55198  0.62455  Biso   1.000  C 
  H93      1.0000 0.32407  0.55378  0.57085  Biso   1.000  H 
  Te13     1.0000 0.41444  0.65991  0.90288  Biso   1.000  O
  Te14     1.0000 0.46883  0.62599  0.88212  Biso   1.000  O
  H94      1.0000 0.37146  0.52418  0.55263  Biso   1.000  H 
  Mg7      1.0000 0.46995  0.67431  0.99228  Biso   1.000  Mg
  C121     1.0000 0.64632  0.43135  0.63482  Biso   1.000  C 
  C122     1.0000 0.63478  0.39542  0.72761  Biso   1.000  C 
  Sn15     1.0000 0.59659  0.37595  0.81067  Biso   1.000  C
  Sn16     1.0000 0.56952  0.39284  0.80038  Biso   1.000  C
  C123     1.0000 0.58134  0.42878  0.70714  Biso   1.000  C 
  C124     1.0000 0.61963  0.44802  0.62455  Biso   1.000  C 
  H95      1.0000 0.67593  0.44622  0.57085  Biso   1.000  H 
  Te15     1.0000 0.58556  0.34009  0.90288  Biso   1.000  O
  Te16     1.0000 0.53117  0.37401  0.88212  Biso   1.000  O
  H96      1.0000 0.62854  0.47582  0.55263  Biso   1.000  H 
  Mg8      1.0000 0.53005  0.32569  0.99228  Biso   1.000  Mg
  C125     1.0000 0.21522  0.64906  0.65850  Biso   1.000  C 
  C126     1.0000 0.23875  0.63546  0.74578  Biso   1.000  C 
  Sn17     1.0000 0.21914  0.59599  0.81915  Biso   1.000  C
  Sn18     1.0000 0.17514  0.56970  0.80464  Biso   1.000  C
  C127     1.0000 0.15188  0.58358  0.71696  Biso   1.000  C 
  C128     1.0000 0.17182  0.62315  0.64407  Biso   1.000  C 
  H97      1.0000 0.23065  0.67966  0.60202  Biso   1.000  H 
  Te17     1.0000 0.24312  0.58290  0.90596  Biso   1.000  O
  Te18     1.0000 0.15474  0.53010  0.87671  Biso   1.000  O
  H98      1.0000 0.15360  0.63366  0.57641  Biso   1.000  H 
  Mg9      1.0000 0.20098  0.52628  0.98247  Biso   1.000  Mg
  C129     1.0000 0.81840  0.43213  0.81600  Biso   1.000  C 
  C130     1.0000 0.84233  0.41637  0.74670  Biso   1.000  C 
  Sn19     1.0000 0.82275  0.37667  0.67519  Biso   1.000  C
  Sn20     1.0000 0.77839  0.35238  0.67316  Biso   1.000  C
  C131     1.0000 0.75473  0.36844  0.74271  Biso   1.000  C 
  C132     1.0000 0.77464  0.40820  0.81399  Biso   1.000  C 
  H99      1.0000 0.83380  0.46290  0.87108  Biso   1.000  H 
  Te19     1.0000 0.84713  0.36139  0.60656  Biso   1.000  O
  Te20     1.0000 0.75802  0.31261  0.60243  Biso   1.000  O
  H100     1.0000 0.75610  0.42041  0.86754  Biso   1.000  H 
  Mg10     1.0000 0.80487  0.30543  0.52462  Biso   1.000  Mg
  C133     1.0000 0.36616  0.79093  0.79443  Biso   1.000  C 
  C134     1.0000 0.37399  0.76046  0.72973  Biso   1.000  C 
  Sn21     1.0000 0.41041  0.77221  0.64001  Biso   1.000  C
  Sn22     1.0000 0.43948  0.81530  0.61482  Biso   1.000  C
  C135     1.0000 0.43137  0.84555  0.68015  Biso   1.000  C 
  C136     1.0000 0.39482  0.83344  0.76970  Biso   1.000  C 
  H101     1.0000 0.33789  0.78156  0.86379  Biso   1.000  H 
  Te21     1.0000 0.41775  0.74136  0.57618  Biso   1.000  O
  Te22     1.0000 0.47614  0.82793  0.52567  Biso   1.000  O
  H102     1.0000 0.38877  0.85704  0.81987  Biso   1.000  H 
  Mg11     1.0000 0.47216  0.77419  0.46316  Biso   1.000  Mg
  C137     1.0000 0.63384  0.20907  0.79443  Biso   1.000  C 
  C138     1.0000 0.62601  0.23954  0.72973  Biso   1.000  C 
  Sn23     1.0000 0.58959  0.22779  0.64001  Biso   1.000  C
  Sn24     1.0000 0.56052  0.18470  0.61482  Biso   1.000  C
  C139     1.0000 0.56863  0.15445  0.68015  Biso   1.000  C 
  C140     1.0000 0.60518  0.16656  0.76970  Biso   1.000  C 
  H103     1.0000 0.66211  0.21844  0.86379  Biso   1.000  H 
  Te23     1.0000 0.58225  0.25864  0.57618  Biso   1.000  O
  Te24     1.0000 0.52386  0.17207  0.52567  Biso   1.000  O
  H104     1.0000 0.61123  0.14296  0.81987  Biso   1.000  H 
  Mg12     1.0000 0.52784  0.22581  0.46316  Biso   1.000  Mg
